<?xml version="1.0"?> 

<!-- generated on 08/01/11 18:59:51 by SUMO duarouter Version 0.13.0 
<?xml version="1.0" encoding="iso-8859-1"?> 
<configuration xmlns:xsi="http://www.w3.org/2001/XMLSchema-instance" xsi:noNamespaceSchemaLocation="http://sumo.sf.net/xsd/duarouterConfiguration.xsd"> 
 
 <input> 
<net-file value="prob.net.xml"/> 
<trip-files value="input_trips.trips.xml"/> 
</input> 
 
<output> 
 <output-file value="prob.rou.xml"/> 
 </output> 
 
</configuration> 
--> 
<routes> 
<vtype id="CarA" accel="17.0" decel="16.5" sigma="0.0" length="3.0" maxspeed="31.5" color="1,0,0"  />
<vehicle type="CarA"  id="veh0" depart="0"  departLane="1" departPos="free" departSpeed="29.0" arrivalLane="current" arrivalPos="max"  > <route edges="E1 E2 E3 E4 E5 E6 E7 E8 E9 E10 E11 E12 E13 E14 E15 E16 E17 E18 E19 E20 E21"/>  </vehicle>
<vehicle type="CarA"  id="veh3664" depart="0"  departLane="0"  departPos="free" departSpeed="29.0" arrivalLane="current" arrivalPos="max"  > <route  edges="E2 E3 E4 E5 E6 E7 E8 E9 E10 E11 E12 E13 E14 E15 E16 E17 E18 E19 E20 E21"/>  </vehicle> 
<vehicle type="CarA"  id="veh4161" depart="0"  departLane="0"  departPos="free" departSpeed="29.0" arrivalLane="current" arrivalPos="max"  > <route edges="E11 E12 E13 E14 E15 E16 E17 E18 E19 E20 E21"/>  </vehicle> 
<vehicle type="CarA"  id="veh4659" depart="0"  departLane="0"  departPos="free" departSpeed="29.0" arrivalLane="current" arrivalPos="max"  > <route edges="E12 E13 E14 E15 E16 E17 E18 E19 E20 E21"/>  </vehicle> 
<vehicle type="CarA"  id="veh5109" depart="0"  departLane="0"  departPos="free" departSpeed="29.0" arrivalLane="current" arrivalPos="max" > <route  edges="E15 E16 E17 E18 E19 E20 E21"/>  </vehicle> 
<vehicle type="CarA"  id="veh4660" depart="0"  departLane="0"  departPos="free" departSpeed="29.0" arrivalLane="current" arrivalPos="max"  > <route edges="E12 E13 E14 E15 E16 E17 E18 E19 E20 E21"/>  </vehicle> 
<vehicle type="CarA"  id="veh1" depart="1"  departLane="2" departPos="free" departSpeed="29.0" arrivalLane="current" arrivalPos="max"  > <route edges="E1 E2 E3 E4 E5 E6 E7 E8 E9 E10 E11 E12 E13 E14 E15 E16 E17 E18 E19 E20 E21"/>  </vehicle> 
<vehicle type="CarA"  id="veh2" depart="1"  departLane="3" departPos="free" departSpeed="29.0" arrivalLane="current" arrivalPos="max"  > <route  edges="E1 E2 E3 E4 E5 E6 E7 E8 E9 E10 E11 E12 E13"/>  </vehicle> 
<vehicle type="CarA"  id="veh5111" depart="2"  departLane="0"  departPos="free" departSpeed="29.0" arrivalLane="current" arrivalPos="max" > <route  edges="E15 E16 E17 E18 E19 E20 E21"/>  </vehicle> 
<vehicle type="CarA"  id="veh3" depart="2"  departLane="0" departPos="free" departSpeed="29.0" arrivalLane="current" arrivalPos="max"  > <route edges="E1 E2 E3 E4 E5 E6 E7 E8 E9 E10 E11 E12 E13 E14 E15 E16 E17 E18 E19 E20 E21"/>  </vehicle> 
<vehicle type="CarA"  id="veh4" depart="2"  departLane="1" departPos="free" departSpeed="29.0" arrivalLane="current" arrivalPos="max"  > <route edges="E1 E2 E3 E4 E5 E6 E7 E8 E9 E10 E11 E12 E13 E14 E15 E16 E17 E18 E19 E20 E21"/>  </vehicle> 
<vehicle type="CarA"  id="veh5" depart="2"  departLane="2" departPos="free" departSpeed="29.0" arrivalLane="current" arrivalPos="max"  > <route edges="E1 E2 E3 E4 E5 E6 E7 E8 E9 E10 E11 E12 E13 E14 E15 E16 E17 E18 E19 E20 E21"/>  </vehicle> 
<vehicle type="CarA"  id="veh6" depart="2"  departLane="3" departPos="free" departSpeed="29.0" arrivalLane="current" arrivalPos="max"  > <route edges="E1 E2 E3 E4 E5 E6 E7 E8 E9 E10 E11 E12 E13 E14 E15 E16 E17 E18 E19 E20 E21"/>  </vehicle> 
<vehicle type="CarA"  id="veh4661" depart="2"  departLane="0"  departPos="free" departSpeed="29.0" arrivalLane="current" arrivalPos="max"  > <route edges="E12 E13 E14 E15 E16 E17 E18 E19 E20 E21"/>  </vehicle> 
<vehicle type="CarA"  id="veh4162" depart="3"  departLane="0"  departPos="free" departSpeed="29.0" arrivalLane="current" arrivalPos="max"  > <route edges="S10 E10 E11 E12 E13 E14 E15 E16 E17 E18 E19 E20 E21"/>  </vehicle> 
<vehicle type="CarA"  id="veh4163" depart="3"  departLane="0"  departPos="free" departSpeed="29.0" arrivalLane="current" arrivalPos="max"  > <route edges="E11 E12 E13 E14 E15 E16 E17 E18 E19 E20 E21"/>  </vehicle> 
<vehicle type="CarA"  id="veh7" depart="4"  departLane="0" departPos="free" departSpeed="29.0" arrivalLane="current" arrivalPos="max"  > <route  edges="E1 E2 E3 E4 E5 E6 E7 E8 E9 E10 E11 E12 E13"/>  </vehicle> 
<vehicle type="CarA"  id="veh8" depart="4"  departLane="1" departPos="free" departSpeed="29.0" arrivalLane="current" arrivalPos="max"  > <route edges="E1 E2 E3 E4 E5 E6 E7 E8 E9 E10 E11 E12 E13 E14 E15 E16 E17 E18 E19 E20 E21"/>  </vehicle> 
<vehicle type="CarA"  id="veh9" depart="5"  departLane="2" departPos="free" departSpeed="29.0" arrivalLane="current" arrivalPos="max"  > <route edges="E1 E2 E3 E4 E5 E6 E7 E8 E9 E10 E11 E12 E13 E14 E15 E16 E17 E18 E19 E20 E21"/>  </vehicle> 
<vehicle type="CarA"  id="veh10" depart="5"  departLane="3" departPos="free" departSpeed="29.0" arrivalLane="current" arrivalPos="max"  > <route  edges="E1 E2 E3 E4 E5 E6 E7 E8 E9 E10 E11 E12 E13 E14 E15 E16 E17 E18 E19 S20"/>  </vehicle> 
<vehicle type="CarA"  id="veh11" depart="5"  departLane="0" departPos="free" departSpeed="29.0" arrivalLane="current" arrivalPos="max"  > <route edges="E1 E2 E3 E4 E5 E6 E7 E8 E9 E10 E11 E12 E13 E14 E15 E16 E17 E18 E19 E20 E21"/>  </vehicle> 
<vehicle type="CarA"  id="veh5112" depart="5"  departLane="0"  departPos="free" departSpeed="29.0" arrivalLane="current" arrivalPos="max" > <route  edges="E15 E16 E17 E18 E19 E20 E21"/>  </vehicle> 
<vehicle type="CarA"  id="veh12" depart="5"  departLane="1" departPos="free" departSpeed="29.0" arrivalLane="current" arrivalPos="max"  > <route edges="E1 E2 E3 E4 E5 E6 E7 E8 E9 E10 E11 E12 E13 E14 E15 E16 E17 E18 E19 E20 E21"/>  </vehicle> 
<vehicle type="CarA"  id="veh5113" depart="5"  departLane="0"  departPos="free" departSpeed="29.0" arrivalLane="current" arrivalPos="max" > <route  edges="E15 E16 E17 E18 E19 E20 E21"/>  </vehicle> 
<vehicle type="CarA"  id="veh13" depart="6"  departLane="2" departPos="free" departSpeed="29.0" arrivalLane="current" arrivalPos="max"  > <route edges="E1 E2 E3 E4 E5 E6 E7 E8 E9 E10 E11 E12 E13 E14 E15 E16 E17 E18 E19 E20 E21"/>  </vehicle> 
<vehicle type="CarA"  id="veh5114" depart="6"  departLane="0"  departPos="free" departSpeed="29.0" arrivalLane="current" arrivalPos="max" > <route  edges="E15 E16 E17 E18 E19 E20 E21"/>  </vehicle> 
<vehicle type="CarA"  id="veh3665" depart="7"  departLane="0"  departPos="free" departSpeed="29.0" arrivalLane="current" arrivalPos="max"  > <route  edges="E2 E3 E4 E5 E6 E7 E8 E9 E10 E11 E12 E13 E14 E15 E16 E17 E18 E19 E20 E21"/>  </vehicle> 
<vehicle type="CarA"  id="veh3666" depart="7"  departLane="0"  departPos="free" departSpeed="29.0" arrivalLane="current" arrivalPos="max"  > <route  edges="E2 E3 E4 E5 E6 E7 E8 E9 E10 E11 E12 E13 E14 E15 E16 E17 E18 E19 E20 E21"/>  </vehicle> 
<vehicle type="CarA"  id="veh14" depart="7"  departLane="3" departPos="free" departSpeed="29.0" arrivalLane="current" arrivalPos="max"  > <route edges="E1 E2 E3 E4 E5 E6 E7 E8 E9 E10 E11 E12 E13 E14 E15 E16 E17 E18 E19 E20 E21"/>  </vehicle> 
<vehicle type="CarA"  id="veh15" depart="7"  departLane="0" departPos="free" departSpeed="29.0" arrivalLane="current" arrivalPos="max"  > <route  edges="E1 E2 E3 E4 E5 E6 E7 E8 E9 E10 E11 E12 E13 E14 E15 E16 E17 E18 E19 S20"/>  </vehicle> 
<vehicle type="CarA"  id="veh16" depart="7"  departLane="1" departPos="free" departSpeed="29.0" arrivalLane="current" arrivalPos="max"  > <route  edges="E1 E2 E3 E4 E5 E6 E7 E8 E9 E10 E11 E12 E13 E14 E15 E16 E17 E18 E19 S20"/>  </vehicle> 
<vehicle type="CarA"  id="veh5115" depart="8"  departLane="0"  departPos="free" departSpeed="29.0" arrivalLane="current" arrivalPos="max" > <route  edges="E15 E16 E17 E18 E19 E20 E21"/>  </vehicle> 
<vehicle type="CarA"  id="veh17" depart="8"  departLane="2" departPos="free" departSpeed="29.0" arrivalLane="current" arrivalPos="max"  > <route edges="E1 E2 E3 E4 E5 E6 E7 E8 E9 E10 E11 E12 E13 E14 E15 E16 E17 E18 E19 E20 E21"/>  </vehicle> 
<vehicle type="CarA"  id="veh5116" depart="8"  departLane="0"  departPos="free" departSpeed="29.0" arrivalLane="current" arrivalPos="max" > <route  edges="S15 E15 E16 E17 E18 E19 E20 E21"/>  </vehicle> 
<vehicle type="CarA"  id="veh18" depart="9"  departLane="3" departPos="free" departSpeed="29.0" arrivalLane="current" arrivalPos="max"  > <route edges="E1 E2 E3 E4 E5 E6 E7 E8 E9 E10 E11 E12 E13 E14 E15 E16 E17 E18 E19 E20 E21"/>  </vehicle> 
<vehicle type="CarA"  id="veh19" depart="10"  departLane="0" departPos="free" departSpeed="29.0" arrivalLane="current" arrivalPos="max"  > <route  edges="E1 E2 E3 E4 E5 E6 E7 E8 E9 E10 E11 E12 E13 E14 E15 E16 E17 E18 E19 S20"/>  </vehicle> 
<vehicle type="CarA"  id="veh20" depart="10"  departLane="1" departPos="free" departSpeed="29.0" arrivalLane="current" arrivalPos="max"  > <route edges="E1 E2 E3 E4 E5 E6 E7 E8 E9 E10 E11 E12 E13 E14 E15 E16 E17 E18 E19 E20 E21"/>  </vehicle> 
<vehicle type="CarA"  id="veh3667" depart="10"  departLane="0"  departPos="free" departSpeed="29.0" arrivalLane="current" arrivalPos="max"  > <route  edges="S2 E2 E3 E4 E5 E6 E7 E8 E9 E10 E11 E12 E13 E14 E15 E16 E17 E18 E19 E20 E21"/>  </vehicle> 
<vehicle type="CarA"  id="veh21" depart="11"  departLane="2" departPos="free" departSpeed="29.0" arrivalLane="current" arrivalPos="max"  > <route edges="E1 E2 E3 E4 E5 E6 E7 E8 E9 E10 E11 E12 E13 E14 E15 E16 E17 E18 E19 E20 E21"/>  </vehicle> 
<vehicle type="CarA"  id="veh5117" depart="11"  departLane="0"  departPos="free" departSpeed="29.0" arrivalLane="current" arrivalPos="max" > <route  edges="S15 E15 E16 E17 E18 E19 E20 E21"/>  </vehicle> 
<vehicle type="CarA"  id="veh22" depart="11"  departLane="3" departPos="free" departSpeed="29.0" arrivalLane="current" arrivalPos="max"  > <route edges="E1 E2 E3 E4 E5 E6 E7 E8 E9 E10 E11 E12 E13 E14 E15 E16 E17 E18 E19 E20 E21"/>  </vehicle> 
<vehicle type="CarA"  id="veh23" depart="11"  departLane="0" departPos="free" departSpeed="29.0" arrivalLane="current" arrivalPos="max"  > <route edges="E1 E2 E3 E4 E5 E6 E7 E8 E9 E10 E11 E12 E13 E14 E15 E16 E17 E18 E19 E20 E21"/>  </vehicle> 
<vehicle type="CarA"  id="veh5118" depart="11"  departLane="0"  departPos="free" departSpeed="29.0" arrivalLane="current" arrivalPos="max" > <route  edges="E15 E16 E17 E18 E19 E20 E21"/>  </vehicle> 
<vehicle type="CarA"  id="veh3668" depart="11"  departLane="0"  departPos="free" departSpeed="29.0" arrivalLane="current" arrivalPos="max"  > <route  edges="E2 E3 E4 E5 E6 E7 E8 E9 E10 E11 E12 E13 E14 E15 E16 E17 E18 E19 E20 E21"/>  </vehicle> 
<vehicle type="CarA"  id="veh24" depart="12"  departLane="1" departPos="free" departSpeed="29.0" arrivalLane="current" arrivalPos="max"  > <route edges="E1 E2 E3 E4 E5 E6 E7 E8 E9 E10 E11 E12 E13 E14 E15 E16 E17 E18 E19 E20 E21"/>  </vehicle> 
<vehicle type="CarA"  id="veh25" depart="12"  departLane="2" departPos="free" departSpeed="29.0" arrivalLane="current" arrivalPos="max"  > <route edges="E1 E2 E3 E4 E5 E6 E7 E8 E9 E10 E11 E12 E13 E14 E15 E16 E17 E18 E19 E20 E21"/>  </vehicle> 
<vehicle type="CarA"  id="veh5119" depart="13"  departLane="0"  departPos="free" departSpeed="29.0" arrivalLane="current" arrivalPos="max" > <route  edges="E15 E16 E17 E18 E19 E20 E21"/>  </vehicle> 
<vehicle type="CarA"  id="veh26" depart="13"  departLane="3" departPos="free" departSpeed="29.0" arrivalLane="current" arrivalPos="max"  > <route edges="E1 E2 E3 E4 E5 E6 E7 E8 E9 E10 E11 E12 E13 E14 E15 E16 E17 E18 E19 E20 E21"/>  </vehicle> 
<vehicle type="CarA"  id="veh4164" depart="13"  departLane="0"  departPos="free" departSpeed="29.0" arrivalLane="current" arrivalPos="max"  > <route edges="E11 E12 E13 E14 E15 E16 E17 E18 E19 E20 E21"/>  </vehicle> 
<vehicle type="CarA"  id="veh27" depart="13"  departLane="0" departPos="free" departSpeed="29.0" arrivalLane="current" arrivalPos="max"  > <route edges="E1 E2 E3 E4 E5 E6 E7 E8 E9 E10 E11 E12 E13 E14 E15 E16 E17 E18 E19 E20 E21"/>  </vehicle> 
<vehicle type="CarA"  id="veh28" depart="13"  departLane="1" departPos="free" departSpeed="29.0" arrivalLane="current" arrivalPos="max"  > <route edges="E1 E2 E3 E4 E5 E6 E7 E8 E9 E10 E11 E12 E13 E14 E15 E16 E17 E18 E19 E20 E21"/>  </vehicle> 
<vehicle type="CarA"  id="veh29" depart="14"  departLane="2" departPos="free" departSpeed="29.0" arrivalLane="current" arrivalPos="max"  > <route edges="E1 E2 E3 E4 E5 E6 E7 E8 E9 E10 E11 E12 E13 E14 E15 E16 E17 E18 E19 E20 E21"/>  </vehicle> 
<vehicle type="CarA"  id="veh30" depart="14"  departLane="3" departPos="free" departSpeed="29.0" arrivalLane="current" arrivalPos="max"  > <route edges="E1 E2 E3 E4 E5 E6 E7 E8 E9 E10 E11 E12 E13 E14 E15 E16 E17 E18 E19 E20 E21"/>  </vehicle> 
<vehicle type="CarA"  id="veh31" depart="14"  departLane="0" departPos="free" departSpeed="29.0" arrivalLane="current" arrivalPos="max"  > <route edges="E1 E2 E3 E4 E5 E6 E7 E8 E9 E10 E11 E12 E13 E14 E15 E16 E17 E18 E19 E20 E21"/>  </vehicle> 
<vehicle type="CarA"  id="veh32" depart="14"  departLane="1" departPos="free" departSpeed="29.0" arrivalLane="current" arrivalPos="max"  > <route edges="E1 E2 E3 E4 E5 E6 E7 E8 E9 E10 E11 E12 E13 E14 E15 E16 E17 E18 E19 E20 E21"/>  </vehicle> 
<vehicle type="CarA"  id="veh33" depart="15"  departLane="2" departPos="free" departSpeed="29.0" arrivalLane="current" arrivalPos="max"  > <route  edges="E1 E2 E3 E4 E5 E6 E7 E8 E9 E10 E11 E12 E13"/>  </vehicle> 
<vehicle type="CarA"  id="veh34" depart="15"  departLane="3" departPos="free" departSpeed="29.0" arrivalLane="current" arrivalPos="max"  > <route edges="E1 E2 E3 E4 E5 E6 E7 E8 E9 E10 E11 E12 E13 E14 E15 E16 E17 E18 E19 E20 E21"/>  </vehicle> 
<vehicle type="CarA"  id="veh35" depart="16"  departLane="0" departPos="free" departSpeed="29.0" arrivalLane="current" arrivalPos="max"  > <route edges="E1 E2 E3 E4 E5 E6 E7 E8 E9 E10 E11 E12 E13 E14 E15 E16 E17 E18 E19 E20 E21"/>  </vehicle> 
<vehicle type="CarA"  id="veh36" depart="16"  departLane="1" departPos="free" departSpeed="29.0" arrivalLane="current" arrivalPos="max"  > <route edges="E1 E2 E3 E4 E5 E6 E7 E8 E9 E10 E11 E12 E13 E14 E15 E16 E17 E18 E19 E20 E21"/>  </vehicle> 
<vehicle type="CarA"  id="veh37" depart="17"  departLane="2" departPos="free" departSpeed="29.0" arrivalLane="current" arrivalPos="max"  > <route edges="E1 E2 E3 E4 E5 E6 E7 E8 E9 E10 E11 E12 E13 E14 E15 E16 E17 E18 E19 E20 E21"/>  </vehicle> 
<vehicle type="CarA"  id="veh3669" depart="17"  departLane="0"  departPos="free" departSpeed="29.0" arrivalLane="current" arrivalPos="max"  > <route  edges="E2 E3 E4 E5 E6 E7 E8 E9 E10 E11 E12 E13 E14 E15 E16 E17 E18 E19 E20 E21"/>  </vehicle> 
<vehicle type="CarA"  id="veh5120" depart="18"  departLane="0"  departPos="free" departSpeed="29.0" arrivalLane="current" arrivalPos="max" > <route  edges="S15 E15 E16 E17 E18 E19 E20 E21"/>  </vehicle> 
<vehicle type="CarA"  id="veh38" depart="18"  departLane="3" departPos="free" departSpeed="29.0" arrivalLane="current" arrivalPos="max"  > <route edges="E1 E2 E3 E4 E5 E6 E7 E8 E9 E10 E11 E12 E13 E14 E15 E16 E17 E18 E19 E20 E21"/>  </vehicle> 
<vehicle type="CarA"  id="veh39" depart="19"  departLane="0" departPos="free" departSpeed="29.0" arrivalLane="current" arrivalPos="max"  > <route edges="E1 E2 E3 E4 E5 E6 E7 E8 E9 E10 E11 E12 E13 E14 E15 E16 E17 E18 E19 E20 E21"/>  </vehicle> 
<vehicle type="CarA"  id="veh40" depart="19"  departLane="1" departPos="free" departSpeed="29.0" arrivalLane="current" arrivalPos="max"  > <route edges="E1 E2 E3 E4 E5 E6 E7 E8 E9 E10 E11 E12 E13 E14 E15 E16 E17 E18 E19 E20 E21"/>  </vehicle> 
<vehicle type="CarA"  id="veh4662" depart="19"  departLane="0"  departPos="free" departSpeed="29.0" arrivalLane="current" arrivalPos="max"  > <route edges="S12 E12 E13 E14 E15 E16 E17 E18 E19 E20 E21"/>  </vehicle> 
<vehicle type="CarA"  id="veh5121" depart="19"  departLane="0"  departPos="free" departSpeed="29.0" arrivalLane="current" arrivalPos="max" > <route  edges="S15 E15 E16 E17 E18 E19 E20 E21"/>  </vehicle> 
<vehicle type="CarA"  id="veh3670" depart="20"  departLane="0"  departPos="free" departSpeed="29.0" arrivalLane="current" arrivalPos="max"  > <route  edges="E2 E3 E4 E5 E6 E7 E8 E9 E10 E11 E12 E13 E14 E15 E16 E17 E18 E19 E20 E21"/>  </vehicle> 
<vehicle type="CarA"  id="veh41" depart="20"  departLane="2" departPos="free" departSpeed="29.0" arrivalLane="current" arrivalPos="max"  > <route edges="E1 E2 E3 E4 E5 E6 E7 E8 E9 E10 E11 E12 E13 E14 E15 E16 E17 E18 E19 E20 E21"/>  </vehicle> 
<vehicle type="CarA"  id="veh42" depart="20"  departLane="3" departPos="free" departSpeed="29.0" arrivalLane="current" arrivalPos="max"  > <route edges="E1 E2 E3 E4 E5 E6 E7 E8 E9 E10 E11 E12 E13 E14 E15 E16 E17 E18 E19 E20 E21"/>  </vehicle> 
<vehicle type="CarA"  id="veh43" depart="21"  departLane="0" departPos="free" departSpeed="29.0" arrivalLane="current" arrivalPos="max"  > <route edges="E1 E2 E3 E4 E5 E6 E7 E8 E9 E10 E11 E12 E13 E14 E15 E16 E17 E18 E19 E20 E21"/>  </vehicle> 
<vehicle type="CarA"  id="veh5122" depart="22"  departLane="0"  departPos="free" departSpeed="29.0" arrivalLane="current" arrivalPos="max" > <route  edges="E15 E16 E17 E18 E19 E20 E21"/>  </vehicle> 
<vehicle type="CarA"  id="veh44" depart="22"  departLane="1" departPos="free" departSpeed="29.0" arrivalLane="current" arrivalPos="max"  > <route edges="E1 E2 E3 E4 E5 E6 E7 E8 E9 E10 E11 E12 E13 E14 E15 E16 E17 E18 E19 E20 E21"/>  </vehicle> 
<vehicle type="CarA"  id="veh45" depart="22"  departLane="2" departPos="free" departSpeed="29.0" arrivalLane="current" arrivalPos="max"  > <route  edges="E1 E2 E3 E4 E5 E6 E7 E8 E9 E10 E11 E12 E13 E14 E15 E16 E17 E18 E19 S20"/>  </vehicle> 
<vehicle type="CarA"  id="veh46" depart="22"  departLane="3" departPos="free" departSpeed="29.0" arrivalLane="current" arrivalPos="max"  > <route edges="E1 E2 E3 E4 E5 E6 E7 E8 E9 E10 E11 E12 E13 E14 E15 E16 E17 E18 E19 E20 E21"/>  </vehicle> 
<vehicle type="CarA"  id="veh5123" depart="23"  departLane="0"  departPos="free" departSpeed="29.0" arrivalLane="current" arrivalPos="max" > <route  edges="E15 E16 E17 E18 E19 E20 E21"/>  </vehicle> 
<vehicle type="CarA"  id="veh47" depart="23"  departLane="0" departPos="free" departSpeed="29.0" arrivalLane="current" arrivalPos="max"  > <route  edges="E1 E2 E3 E4 E5 E6 E7 E8 E9 E10 E11 E12 E13"/>  </vehicle> 
<vehicle type="CarA"  id="veh5124" depart="23"  departLane="0"  departPos="free" departSpeed="29.0" arrivalLane="current" arrivalPos="max" > <route  edges="E15 E16 E17 E18 E19 E20 E21"/>  </vehicle> 
<vehicle type="CarA"  id="veh4663" depart="24"  departLane="0"  departPos="free" departSpeed="29.0" arrivalLane="current" arrivalPos="max"  > <route edges="E12 E13 E14 E15 E16 E17 E18 E19 E20 E21"/>  </vehicle> 
<vehicle type="CarA"  id="veh48" depart="24"  departLane="1" departPos="free" departSpeed="29.0" arrivalLane="current" arrivalPos="max"  > <route edges="E1 E2 E3 E4 E5 E6 E7 E8 E9 E10 E11 E12 E13 E14 E15 E16 E17 E18 E19 E20 E21"/>  </vehicle> 
<vehicle type="CarA"  id="veh5125" depart="25"  departLane="0"  departPos="free" departSpeed="29.0" arrivalLane="current" arrivalPos="max" > <route  edges="S15 E15 E16 E17 E18 E19 E20 E21"/>  </vehicle> 
<vehicle type="CarA"  id="veh4165" depart="26"  departLane="0"  departPos="free" departSpeed="29.0" arrivalLane="current" arrivalPos="max"  > <route edges="E11 E12 E13 E14 E15 E16 E17 E18 E19 E20 E21"/>  </vehicle> 
<vehicle type="CarA"  id="veh49" depart="26"  departLane="2" departPos="free" departSpeed="29.0" arrivalLane="current" arrivalPos="max"  > <route edges="E1 E2 E3 E4 E5 E6 E7 E8 E9 E10 E11 E12 E13 E14 E15 E16 E17 E18 E19 E20 E21"/>  </vehicle> 
<vehicle type="CarA"  id="veh50" depart="27"  departLane="3" departPos="free" departSpeed="29.0" arrivalLane="current" arrivalPos="max"  > <route edges="E1 E2 E3 E4 E5 E6 E7 E8 E9 E10 E11 E12 E13 E14 E15 E16 E17 E18 E19 E20 E21"/>  </vehicle> 
<vehicle type="CarA"  id="veh51" depart="27"  departLane="0" departPos="free" departSpeed="29.0" arrivalLane="current" arrivalPos="max"  > <route edges="E1 E2 E3 E4 E5 E6 E7 E8 E9 E10 E11 E12 E13 E14 E15 E16 E17 E18 E19 E20 E21"/>  </vehicle> 
<vehicle type="CarA"  id="veh52" depart="27"  departLane="1" departPos="free" departSpeed="29.0" arrivalLane="current" arrivalPos="max"  > <route edges="E1 E2 E3 E4 E5 E6 E7 E8 E9 E10 E11 E12 E13 E14 E15 E16 E17 E18 E19 E20 E21"/>  </vehicle> 
<vehicle type="CarA"  id="veh4166" depart="29"  departLane="0"  departPos="free" departSpeed="29.0" arrivalLane="current" arrivalPos="max"  > <route edges="S10 E10 E11 E12 E13 E14 E15 E16 E17 E18 E19 E20 E21"/>  </vehicle> 
<vehicle type="CarA"  id="veh53" depart="29"  departLane="2" departPos="free" departSpeed="29.0" arrivalLane="current" arrivalPos="max"  > <route edges="E1 E2 E3 E4 E5 E6 E7 E8 E9 E10 E11 E12 E13 E14 E15 E16 E17 E18 E19 E20 E21"/>  </vehicle> 
<vehicle type="CarA"  id="veh54" depart="29"  departLane="3" departPos="free" departSpeed="29.0" arrivalLane="current" arrivalPos="max"  > <route edges="E1 E2 E3 E4 E5 E6 E7 E8 E9 E10 E11 E12 E13 E14 E15 E16 E17 E18 E19 E20 E21"/>  </vehicle> 
<vehicle type="CarA"  id="veh55" depart="29"  departLane="0" departPos="free" departSpeed="29.0" arrivalLane="current" arrivalPos="max"  > <route  edges="E1 E2 E3 E4 E5 E6 E7 E8 E9 E10 E11 E12 E13"/>  </vehicle> 
<vehicle type="CarA"  id="veh56" depart="29"  departLane="1" departPos="free" departSpeed="29.0" arrivalLane="current" arrivalPos="max"  > <route edges="E1 E2 E3 E4 E5 E6 E7 E8 E9 E10 E11 E12 E13 E14 E15 E16 E17 E18 E19 E20 E21"/>  </vehicle> 
<vehicle type="CarA"  id="veh57" depart="30"  departLane="2" departPos="free" departSpeed="29.0" arrivalLane="current" arrivalPos="max"  > <route edges="E1 E2 E3 E4 E5 E6 E7 E8 E9 E10 E11 E12 E13 E14 E15 E16 E17 E18 E19 E20 E21"/>  </vehicle> 
<vehicle type="CarA"  id="veh58" depart="30"  departLane="3" departPos="free" departSpeed="29.0" arrivalLane="current" arrivalPos="max"  > <route edges="E1 E2 E3 E4 E5 E6 E7 E8 E9 E10 E11 E12 E13 E14 E15 E16 E17 E18 E19 E20 E21"/>  </vehicle> 
<vehicle type="CarA"  id="veh59" depart="30"  departLane="0" departPos="free" departSpeed="29.0" arrivalLane="current" arrivalPos="max"  > <route edges="E1 E2 E3 E4 E5 E6 E7 E8 E9 E10 E11 E12 E13 E14 E15 E16 E17 E18 E19 E20 E21"/>  </vehicle> 
<vehicle type="CarA"  id="veh60" depart="30"  departLane="1" departPos="free" departSpeed="29.0" arrivalLane="current" arrivalPos="max"  > <route edges="E1 E2 E3 E4 E5 E6 E7 E8 E9 E10 E11 E12 E13 E14 E15 E16 E17 E18 E19 E20 E21"/>  </vehicle> 
<vehicle type="CarA"  id="veh3671" depart="31"  departLane="0"  departPos="free" departSpeed="29.0" arrivalLane="current" arrivalPos="max"  > <route  edges="E2 E3 E4 E5 E6 E7 E8 E9 E10 E11 E12 E13 E14 E15 E16 E17 E18 E19 E20 E21"/>  </vehicle> 
<vehicle type="CarA"  id="veh61" depart="31"  departLane="2" departPos="free" departSpeed="29.0" arrivalLane="current" arrivalPos="max"  > <route edges="E1 E2 E3 E4 E5 E6 E7 E8 E9 E10 E11 E12 E13 E14 E15 E16 E17 E18 E19 E20 E21"/>  </vehicle> 
<vehicle type="CarA"  id="veh62" depart="31"  departLane="3" departPos="free" departSpeed="29.0" arrivalLane="current" arrivalPos="max"  > <route edges="E1 E2 E3 E4 E5 E6 E7 E8 E9 E10 E11 E12 E13 E14 E15 E16 E17 E18 E19 E20 E21"/>  </vehicle> 
<vehicle type="CarA"  id="veh63" depart="32"  departLane="0" departPos="free" departSpeed="29.0" arrivalLane="current" arrivalPos="max"  > <route edges="E1 E2 E3 E4 E5 E6 E7 E8 E9 E10 E11 E12 E13 E14 E15 E16 E17 E18 E19 E20 E21"/>  </vehicle> 
<vehicle type="CarA"  id="veh64" depart="33"  departLane="1" departPos="free" departSpeed="29.0" arrivalLane="current" arrivalPos="max"  > <route edges="E1 E2 E3 E4 E5 E6 E7 E8 E9 E10 E11 E12 E13 E14 E15 E16 E17 E18 E19 E20 E21"/>  </vehicle> 
<vehicle type="CarA"  id="veh5126" depart="33"  departLane="0"  departPos="free" departSpeed="29.0" arrivalLane="current" arrivalPos="max" > <route  edges="E15 E16 E17 E18 E19 E20 E21"/>  </vehicle> 
<vehicle type="CarA"  id="veh3672" depart="33"  departLane="0"  departPos="free" departSpeed="29.0" arrivalLane="current" arrivalPos="max"  > <route  edges="S2 E2 E3 E4 E5 E6 E7 E8 E9 E10 E11 E12 E13 E14 E15 E16 E17 E18 E19 E20 E21"/>  </vehicle> 
<vehicle type="CarA"  id="veh65" depart="33"  departLane="2" departPos="free" departSpeed="29.0" arrivalLane="current" arrivalPos="max"  > <route edges="E1 E2 E3 E4 E5 E6 E7 E8 E9 E10 E11 E12 E13 E14 E15 E16 E17 E18 E19 E20 E21"/>  </vehicle> 
<vehicle type="CarA"  id="veh5127" depart="34"  departLane="0"  departPos="free" departSpeed="29.0" arrivalLane="current" arrivalPos="max" > <route  edges="E15 E16 E17 E18 E19 E20 E21"/>  </vehicle> 
<vehicle type="CarA"  id="veh66" depart="34"  departLane="3" departPos="free" departSpeed="29.0" arrivalLane="current" arrivalPos="max"  > <route edges="E1 E2 E3 E4 E5 E6 E7 E8 E9 E10 E11 E12 E13 E14 E15 E16 E17 E18 E19 E20 E21"/>  </vehicle> 
<vehicle type="CarA"  id="veh4167" depart="36"  departLane="0"  departPos="free" departSpeed="29.0" arrivalLane="current" arrivalPos="max"  > <route edges="E11 E12 E13 E14 E15 E16 E17 E18 E19 E20 E21"/>  </vehicle> 
<vehicle type="CarA"  id="veh5128" depart="36"  departLane="0"  departPos="free" departSpeed="29.0" arrivalLane="current" arrivalPos="max" > <route  edges="E15 E16 E17 E18 E19 E20 E21"/>  </vehicle> 
<vehicle type="CarA"  id="veh67" depart="36"  departLane="0" departPos="free" departSpeed="29.0" arrivalLane="current" arrivalPos="max"  > <route  edges="E1 E2 E3 E4 E5 E6 E7 E8 E9 E10 E11 E12 E13"/>  </vehicle> 
<vehicle type="CarA"  id="veh68" depart="36"  departLane="1" departPos="free" departSpeed="29.0" arrivalLane="current" arrivalPos="max"  > <route edges="E1 E2 E3 E4 E5 E6 E7 E8 E9 E10 E11 E12 E13 E14 E15 E16 E17 E18 E19 E20 E21"/>  </vehicle> 
<vehicle type="CarA"  id="veh4168" depart="36"  departLane="0"  departPos="free" departSpeed="29.0" arrivalLane="current" arrivalPos="max"  > <route edges="S10 E10 E11 E12 E13 E14 E15 E16 E17 E18 E19 E20 E21"/>  </vehicle> 
<vehicle type="CarA"  id="veh4664" depart="36"  departLane="0"  departPos="free" departSpeed="29.0" arrivalLane="current" arrivalPos="max"  > <route edges="S12 E12 E13 E14 E15 E16 E17 E18 E19 E20 E21"/>  </vehicle> 
<vehicle type="CarA"  id="veh69" depart="37"  departLane="2" departPos="free" departSpeed="29.0" arrivalLane="current" arrivalPos="max"  > <route  edges="E1 E2 E3 E4 E5 E6 E7 E8 E9 E10 E11 E12 E13"/>  </vehicle> 
<vehicle type="CarA"  id="veh5129" depart="37"  departLane="0"  departPos="free" departSpeed="29.0" arrivalLane="current" arrivalPos="max" > <route  edges="E15 E16 E17 E18 E19 E20 E21"/>  </vehicle> 
<vehicle type="CarA"  id="veh70" depart="37"  departLane="3" departPos="free" departSpeed="29.0" arrivalLane="current" arrivalPos="max"  > <route edges="E1 E2 E3 E4 E5 E6 E7 E8 E9 E10 E11 E12 E13 E14 E15 E16 E17 E18 E19 E20 E21"/>  </vehicle> 
<vehicle type="CarA"  id="veh71" depart="37"  departLane="0" departPos="free" departSpeed="29.0" arrivalLane="current" arrivalPos="max"  > <route edges="E1 E2 E3 E4 E5 E6 E7 E8 E9 E10 E11 E12 E13 E14 E15 E16 E17 E18 E19 E20 E21"/>  </vehicle> 
<vehicle type="CarA"  id="veh4665" depart="37"  departLane="0"  departPos="free" departSpeed="29.0" arrivalLane="current" arrivalPos="max"  > <route edges="E12 E13 E14 E15 E16 E17 E18 E19 E20 E21"/>  </vehicle> 
<vehicle type="CarA"  id="veh72" depart="38"  departLane="1" departPos="free" departSpeed="29.0" arrivalLane="current" arrivalPos="max"  > <route  edges="E1 E2 E3 E4 E5 E6 E7 E8 E9 E10 E11 E12 E13 E14 E15 E16 E17 E18 E19 S20"/>  </vehicle> 
<vehicle type="CarA"  id="veh3673" depart="38"  departLane="0"  departPos="free" departSpeed="29.0" arrivalLane="current" arrivalPos="max"  > <route  edges="S2 E2 E3 E4 E5 E6 E7 E8 E9 E10 E11 E12 E13 E14 E15 E16 E17 E18 E19 E20 E21"/>  </vehicle> 
<vehicle type="CarA"  id="veh5130" depart="38"  departLane="0"  departPos="free" departSpeed="29.0" arrivalLane="current" arrivalPos="max" > <route  edges="E15 E16 E17 E18 E19 E20 E21"/>  </vehicle> 
<vehicle type="CarA"  id="veh73" depart="38"  departLane="2" departPos="free" departSpeed="29.0" arrivalLane="current" arrivalPos="max"  > <route  edges="E1 E2 E3 E4 E5 E6 E7 E8 E9 E10 E11 E12 E13"/>  </vehicle> 
<vehicle type="CarA"  id="veh74" depart="38"  departLane="3" departPos="free" departSpeed="29.0" arrivalLane="current" arrivalPos="max"  > <route edges="E1 E2 E3 E4 E5 E6 E7 E8 E9 E10 E11 E12 E13 E14 E15 E16 E17 E18 E19 E20 E21"/>  </vehicle> 
<vehicle type="CarA"  id="veh5131" depart="39"  departLane="0"  departPos="free" departSpeed="29.0" arrivalLane="current" arrivalPos="max" > <route  edges="E15 E16 E17 E18 E19 E20 E21"/>  </vehicle> 
<vehicle type="CarA"  id="veh75" depart="39"  departLane="0" departPos="free" departSpeed="29.0" arrivalLane="current" arrivalPos="max"  > <route  edges="E1 E2 E3 E4 E5 E6 E7 E8 E9 E10 E11 E12 E13 E14 E15 E16 E17 E18 E19 S20"/>  </vehicle> 
<vehicle type="CarA"  id="veh4666" depart="39"  departLane="0"  departPos="free" departSpeed="29.0" arrivalLane="current" arrivalPos="max"  > <route edges="E12 E13 E14 E15 E16 E17 E18 E19 E20 E21"/>  </vehicle> 
<vehicle type="CarA"  id="veh76" depart="39"  departLane="1" departPos="free" departSpeed="29.0" arrivalLane="current" arrivalPos="max"  > <route edges="E1 E2 E3 E4 E5 E6 E7 E8 E9 E10 E11 E12 E13 E14 E15 E16 E17 E18 E19 E20 E21"/>  </vehicle> 
<vehicle type="CarA"  id="veh77" depart="39"  departLane="2" departPos="free" departSpeed="29.0" arrivalLane="current" arrivalPos="max"  > <route edges="E1 E2 E3 E4 E5 E6 E7 E8 E9 E10 E11 E12 E13 E14 E15 E16 E17 E18 E19 E20 E21"/>  </vehicle> 
<vehicle type="CarA"  id="veh78" depart="39"  departLane="3" departPos="free" departSpeed="29.0" arrivalLane="current" arrivalPos="max"  > <route edges="E1 E2 E3 E4 E5 E6 E7 E8 E9 E10 E11 E12 E13 E14 E15 E16 E17 E18 E19 E20 E21"/>  </vehicle> 
<vehicle type="CarA"  id="veh5132" depart="39"  departLane="0"  departPos="free" departSpeed="29.0" arrivalLane="current" arrivalPos="max" > <route  edges="E15 E16 E17 E18 E19 E20 E21"/>  </vehicle> 
<vehicle type="CarA"  id="veh3674" depart="39"  departLane="0"  departPos="free" departSpeed="29.0" arrivalLane="current" arrivalPos="max"  > <route  edges="E2 E3 E4 E5 E6 E7 E8 E9 E10 E11 E12 E13 E14 E15 E16 E17 E18 E19 E20 E21"/>  </vehicle> 
<vehicle type="CarA"  id="veh79" depart="40"  departLane="0" departPos="free" departSpeed="29.0" arrivalLane="current" arrivalPos="max"  > <route  edges="E1 E2 E3 E4 E5 E6 E7 E8 E9 E10 E11 E12 E13"/>  </vehicle> 
<vehicle type="CarA"  id="veh3675" depart="40"  departLane="0"  departPos="free" departSpeed="29.0" arrivalLane="current" arrivalPos="max"  > <route  edges="E2 E3 E4 E5 E6 E7 E8 E9 E10 E11 E12 E13 E14 E15 E16 E17 E18 E19 E20 E21"/>  </vehicle> 
<vehicle type="CarA"  id="veh80" depart="40"  departLane="1" departPos="free" departSpeed="29.0" arrivalLane="current" arrivalPos="max"  > <route edges="E1 E2 E3 E4 E5 E6 E7 E8 E9 E10 E11 E12 E13 E14 E15 E16 E17 E18 E19 E20 E21"/>  </vehicle> 
<vehicle type="CarA"  id="veh81" depart="41"  departLane="2" departPos="free" departSpeed="29.0" arrivalLane="current" arrivalPos="max"  > <route edges="E1 E2 E3 E4 E5 E6 E7 E8 E9 E10 E11 E12 E13 E14 E15 E16 E17 E18 E19 E20 E21"/>  </vehicle> 
<vehicle type="CarA"  id="veh4667" depart="41"  departLane="0"  departPos="free" departSpeed="29.0" arrivalLane="current" arrivalPos="max"  > <route edges="E12 E13 E14 E15 E16 E17 E18 E19 E20 E21"/>  </vehicle> 
<vehicle type="CarA"  id="veh5133" depart="41"  departLane="0"  departPos="free" departSpeed="29.0" arrivalLane="current" arrivalPos="max" > <route  edges="E15 E16 E17 E18 E19 E20 E21"/>  </vehicle> 
<vehicle type="CarA"  id="veh82" depart="41"  departLane="3" departPos="free" departSpeed="29.0" arrivalLane="current" arrivalPos="max"  > <route  edges="E1 E2 E3 E4 E5 E6 E7 E8 E9 E10 E11 E12 E13"/>  </vehicle> 
<vehicle type="CarA"  id="veh83" depart="41"  departLane="0" departPos="free" departSpeed="29.0" arrivalLane="current" arrivalPos="max"  > <route edges="E1 E2 E3 E4 E5 E6 E7 E8 E9 E10 E11 E12 E13 E14 E15 E16 E17 E18 E19 E20 E21"/>  </vehicle> 
<vehicle type="CarA"  id="veh84" depart="42"  departLane="1" departPos="free" departSpeed="29.0" arrivalLane="current" arrivalPos="max"  > <route  edges="E1 E2 E3 E4 E5 E6 E7 E8 E9 E10 E11 E12 E13 E14 E15 E16 E17 E18 E19 S20"/>  </vehicle> 
<vehicle type="CarA"  id="veh85" depart="42"  departLane="2" departPos="free" departSpeed="29.0" arrivalLane="current" arrivalPos="max"  > <route edges="E1 E2 E3 E4 E5 E6 E7 E8 E9 E10 E11 E12 E13 E14 E15 E16 E17 E18 E19 E20 E21"/>  </vehicle> 
<vehicle type="CarA"  id="veh86" depart="43"  departLane="3" departPos="free" departSpeed="29.0" arrivalLane="current" arrivalPos="max"  > <route  edges="E1 E2 E3 E4 E5 E6 E7 E8 E9 E10 E11 E12 E13 E14 E15 E16 E17 E18 E19 S20"/>  </vehicle> 
<vehicle type="CarA"  id="veh5134" depart="43"  departLane="0"  departPos="free" departSpeed="29.0" arrivalLane="current" arrivalPos="max" > <route  edges="E15 E16 E17 E18 E19 E20 E21"/>  </vehicle> 
<vehicle type="CarA"  id="veh4668" depart="43"  departLane="0"  departPos="free" departSpeed="29.0" arrivalLane="current" arrivalPos="max"  > <route edges="S12 E12 E13 E14 E15 E16 E17 E18 E19 E20 E21"/>  </vehicle> 
<vehicle type="CarA"  id="veh87" depart="44"  departLane="0" departPos="free" departSpeed="29.0" arrivalLane="current" arrivalPos="max"  > <route edges="E1 E2 E3 E4 E5 E6 E7 E8 E9 E10 E11 E12 E13 E14 E15 E16 E17 E18 E19 E20 E21"/>  </vehicle> 
<vehicle type="CarA"  id="veh88" depart="44"  departLane="1" departPos="free" departSpeed="29.0" arrivalLane="current" arrivalPos="max"  > <route edges="E1 E2 E3 E4 E5 E6 E7 E8 E9 E10 E11 E12 E13 E14 E15 E16 E17 E18 E19 E20 E21"/>  </vehicle> 
<vehicle type="CarA"  id="veh89" depart="44"  departLane="2" departPos="free" departSpeed="29.0" arrivalLane="current" arrivalPos="max"  > <route edges="E1 E2 E3 E4 E5 E6 E7 E8 E9 E10 E11 E12 E13 E14 E15 E16 E17 E18 E19 E20 E21"/>  </vehicle> 
<vehicle type="CarA"  id="veh3676" depart="44"  departLane="0"  departPos="free" departSpeed="29.0" arrivalLane="current" arrivalPos="max"  > <route  edges="E2 E3 E4 E5 E6 E7 E8 E9 E10 E11 E12 E13 E14 E15 E16 E17 E18 E19 E20 E21"/>  </vehicle> 
<vehicle type="CarA"  id="veh5135" depart="44"  departLane="0"  departPos="free" departSpeed="29.0" arrivalLane="current" arrivalPos="max" > <route  edges="E15 E16 E17 E18 E19 E20 E21"/>  </vehicle> 
<vehicle type="CarA"  id="veh90" depart="44"  departLane="3" departPos="free" departSpeed="29.0" arrivalLane="current" arrivalPos="max"  > <route edges="E1 E2 E3 E4 E5 E6 E7 E8 E9 E10 E11 E12 E13 E14 E15 E16 E17 E18 E19 E20 E21"/>  </vehicle> 
<vehicle type="CarA"  id="veh91" depart="44"  departLane="0" departPos="free" departSpeed="29.0" arrivalLane="current" arrivalPos="max"  > <route edges="E1 E2 E3 E4 E5 E6 E7 E8 E9 E10 E11 E12 E13 E14 E15 E16 E17 E18 E19 E20 E21"/>  </vehicle> 
<vehicle type="CarA"  id="veh92" depart="45"  departLane="1" departPos="free" departSpeed="29.0" arrivalLane="current" arrivalPos="max"  > <route edges="E1 E2 E3 E4 E5 E6 E7 E8 E9 E10 E11 E12 E13 E14 E15 E16 E17 E18 E19 E20 E21"/>  </vehicle> 
<vehicle type="CarA"  id="veh93" depart="45"  departLane="2" departPos="free" departSpeed="29.0" arrivalLane="current" arrivalPos="max"  > <route edges="E1 E2 E3 E4 E5 E6 E7 E8 E9 E10 E11 E12 E13 E14 E15 E16 E17 E18 E19 E20 E21"/>  </vehicle> 
<vehicle type="CarA"  id="veh5136" depart="45"  departLane="0"  departPos="free" departSpeed="29.0" arrivalLane="current" arrivalPos="max" > <route  edges="E15 E16 E17 E18 E19 E20 E21"/>  </vehicle> 
<vehicle type="CarA"  id="veh94" depart="46"  departLane="3" departPos="free" departSpeed="29.0" arrivalLane="current" arrivalPos="max"  > <route  edges="E1 E2 E3 E4 E5 E6 E7 E8 E9 E10 E11 E12 E13 E14 E15 E16 E17 E18 E19 S20"/>  </vehicle> 
<vehicle type="CarA"  id="veh3677" depart="46"  departLane="0"  departPos="free" departSpeed="29.0" arrivalLane="current" arrivalPos="max"  > <route  edges="E2 E3 E4 E5 E6 E7 E8 E9 E10 E11 E12 E13 E14 E15 E16 E17 E18 E19 E20 E21"/>  </vehicle> 
<vehicle type="CarA"  id="veh5137" depart="46"  departLane="0"  departPos="free" departSpeed="29.0" arrivalLane="current" arrivalPos="max" > <route  edges="E15 E16 E17 E18 E19 E20 E21"/>  </vehicle> 
<vehicle type="CarA"  id="veh5138" depart="47"  departLane="0"  departPos="free" departSpeed="29.0" arrivalLane="current" arrivalPos="max" > <route  edges="E15 E16 E17 E18 E19 E20 E21"/>  </vehicle> 
<vehicle type="CarA"  id="veh3678" depart="47"  departLane="0"  departPos="free" departSpeed="29.0" arrivalLane="current" arrivalPos="max"  > <route  edges="E2 E3 E4 E5 E6 E7 E8 E9 E10 E11 E12 E13 E14 E15 E16 E17 E18 E19 E20 E21"/>  </vehicle> 
<vehicle type="CarA"  id="veh95" depart="47"  departLane="0" departPos="free" departSpeed="29.0" arrivalLane="current" arrivalPos="max"  > <route edges="E1 E2 E3 E4 E5 E6 E7 E8 E9 E10 E11 E12 E13 E14 E15 E16 E17 E18 E19 E20 E21"/>  </vehicle> 
<vehicle type="CarA"  id="veh96" depart="47"  departLane="1" departPos="free" departSpeed="29.0" arrivalLane="current" arrivalPos="max"  > <route edges="E1 E2 E3 E4 E5 E6 E7 E8 E9 E10 E11 E12 E13 E14 E15 E16 E17 E18 E19 E20 E21"/>  </vehicle> 
<vehicle type="CarA"  id="veh97" depart="47"  departLane="2" departPos="free" departSpeed="29.0" arrivalLane="current" arrivalPos="max"  > <route edges="E1 E2 E3 E4 E5 E6 E7 E8 E9 E10 E11 E12 E13 E14 E15 E16 E17 E18 E19 E20 E21"/>  </vehicle> 
<vehicle type="CarA"  id="veh98" depart="48"  departLane="3" departPos="free" departSpeed="29.0" arrivalLane="current" arrivalPos="max"  > <route edges="E1 E2 E3 E4 E5 E6 E7 E8 E9 E10 E11 E12 E13 E14 E15 E16 E17 E18 E19 E20 E21"/>  </vehicle> 
<vehicle type="CarA"  id="veh99" depart="48"  departLane="0" departPos="free" departSpeed="29.0" arrivalLane="current" arrivalPos="max"  > <route edges="E1 E2 E3 E4 E5 E6 E7 E8 E9 E10 E11 E12 E13 E14 E15 E16 E17 E18 E19 E20 E21"/>  </vehicle> 
<vehicle type="CarA"  id="veh100" depart="48"  departLane="1" departPos="free" departSpeed="29.0" arrivalLane="current" arrivalPos="max"  > <route edges="E1 E2 E3 E4 E5 E6 E7 E8 E9 E10 E11 E12 E13 E14 E15 E16 E17 E18 E19 E20 E21"/>  </vehicle> 
<vehicle type="CarA"  id="veh3679" depart="49"  departLane="0"  departPos="free" departSpeed="29.0" arrivalLane="current" arrivalPos="max"  > <route  edges="E2 E3 E4 E5 E6 E7 E8 E9 E10 E11 E12 E13 E14 E15 E16 E17 E18 E19 E20 E21"/>  </vehicle> 
<vehicle type="CarA"  id="veh101" depart="49"  departLane="2" departPos="free" departSpeed="29.0" arrivalLane="current" arrivalPos="max"  > <route edges="E1 E2 E3 E4 E5 E6 E7 E8 E9 E10 E11 E12 E13 E14 E15 E16 E17 E18 E19 E20 E21"/>  </vehicle> 
<vehicle type="CarA"  id="veh102" depart="49"  departLane="3" departPos="free" departSpeed="29.0" arrivalLane="current" arrivalPos="max"  > <route edges="E1 E2 E3 E4 E5 E6 E7 E8 E9 E10 E11 E12 E13 E14 E15 E16 E17 E18 E19 E20 E21"/>  </vehicle> 
<vehicle type="CarA"  id="veh103" depart="49"  departLane="0" departPos="free" departSpeed="29.0" arrivalLane="current" arrivalPos="max"  > <route edges="E1 E2 E3 E4 E5 E6 E7 E8 E9 E10 E11 E12 E13 E14 E15 E16 E17 E18 E19 E20 E21"/>  </vehicle> 
<vehicle type="CarA"  id="veh4669" depart="50"  departLane="0"  departPos="free" departSpeed="29.0" arrivalLane="current" arrivalPos="max"  > <route edges="E12 E13 E14 E15 E16 E17 E18 E19 E20 E21"/>  </vehicle> 
<vehicle type="CarA"  id="veh104" depart="50"  departLane="1" departPos="free" departSpeed="29.0" arrivalLane="current" arrivalPos="max"  > <route edges="E1 E2 E3 E4 E5 E6 E7 E8 E9 E10 E11 E12 E13 E14 E15 E16 E17 E18 E19 E20 E21"/>  </vehicle> 
<vehicle type="CarA"  id="veh105" depart="50"  departLane="2" departPos="free" departSpeed="29.0" arrivalLane="current" arrivalPos="max"  > <route edges="E1 E2 E3 E4 E5 E6 E7 E8 E9 E10 E11 E12 E13 E14 E15 E16 E17 E18 E19 E20 E21"/>  </vehicle> 
<vehicle type="CarA"  id="veh106" depart="50"  departLane="3" departPos="free" departSpeed="29.0" arrivalLane="current" arrivalPos="max"  > <route edges="E1 E2 E3 E4 E5 E6 E7 E8 E9 E10 E11 E12 E13 E14 E15 E16 E17 E18 E19 E20 E21"/>  </vehicle> 
<vehicle type="CarA"  id="veh107" depart="50"  departLane="0" departPos="free" departSpeed="29.0" arrivalLane="current" arrivalPos="max"  > <route edges="E1 E2 E3 E4 E5 E6 E7 E8 E9 E10 E11 E12 E13 E14 E15 E16 E17 E18 E19 E20 E21"/>  </vehicle> 
<vehicle type="CarA"  id="veh5139" depart="50"  departLane="0"  departPos="free" departSpeed="29.0" arrivalLane="current" arrivalPos="max" > <route  edges="E15 E16 E17 E18 E19 E20 E21"/>  </vehicle> 
<vehicle type="CarA"  id="veh108" depart="51"  departLane="1" departPos="free" departSpeed="29.0" arrivalLane="current" arrivalPos="max"  > <route edges="E1 E2 E3 E4 E5 E6 E7 E8 E9 E10 E11 E12 E13 E14 E15 E16 E17 E18 E19 E20 E21"/>  </vehicle> 
<vehicle type="CarA"  id="veh3680" depart="51"  departLane="0"  departPos="free" departSpeed="29.0" arrivalLane="current" arrivalPos="max"  > <route  edges="E2 E3 E4 E5 E6 E7 E8 E9 E10 E11 E12 E13 E14 E15 E16 E17 E18 E19 E20 E21"/>  </vehicle> 
<vehicle type="CarA"  id="veh109" depart="51"  departLane="2" departPos="free" departSpeed="29.0" arrivalLane="current" arrivalPos="max"  > <route edges="E1 E2 E3 E4 E5 E6 E7 E8 E9 E10 E11 E12 E13 E14 E15 E16 E17 E18 E19 E20 E21"/>  </vehicle> 
<vehicle type="CarA"  id="veh110" depart="51"  departLane="3" departPos="free" departSpeed="29.0" arrivalLane="current" arrivalPos="max"  > <route edges="E1 E2 E3 E4 E5 E6 E7 E8 E9 E10 E11 E12 E13 E14 E15 E16 E17 E18 E19 E20 E21"/>  </vehicle> 
<vehicle type="CarA"  id="veh111" depart="52"  departLane="0" departPos="free" departSpeed="29.0" arrivalLane="current" arrivalPos="max"  > <route edges="E1 E2 E3 E4 E5 E6 E7 E8 E9 E10 E11 E12 E13 E14 E15 E16 E17 E18 E19 E20 E21"/>  </vehicle> 
<vehicle type="CarA"  id="veh5140" depart="52"  departLane="0"  departPos="free" departSpeed="29.0" arrivalLane="current" arrivalPos="max" > <route  edges="S15 E15 E16 E17 E18 E19 E20 E21"/>  </vehicle> 
<vehicle type="CarA"  id="veh112" depart="53"  departLane="1" departPos="free" departSpeed="29.0" arrivalLane="current" arrivalPos="max"  > <route edges="E1 E2 E3 E4 E5 E6 E7 E8 E9 E10 E11 E12 E13 E14 E15 E16 E17 E18 E19 E20 E21"/>  </vehicle> 
<vehicle type="CarA"  id="veh113" depart="53"  departLane="2" departPos="free" departSpeed="29.0" arrivalLane="current" arrivalPos="max"  > <route  edges="E1 E2 E3 E4 E5 E6 E7 E8 E9 E10 E11 E12 E13"/>  </vehicle> 
<vehicle type="CarA"  id="veh4670" depart="53"  departLane="0"  departPos="free" departSpeed="29.0" arrivalLane="current" arrivalPos="max"  > <route edges="E12 E13 E14 E15 E16 E17 E18 E19 E20 E21"/>  </vehicle> 
<vehicle type="CarA"  id="veh5141" depart="53"  departLane="0"  departPos="free" departSpeed="29.0" arrivalLane="current" arrivalPos="max" > <route  edges="E15 E16 E17 E18 E19 E20 E21"/>  </vehicle> 
<vehicle type="CarA"  id="veh114" depart="53"  departLane="3" departPos="free" departSpeed="29.0" arrivalLane="current" arrivalPos="max"  > <route edges="E1 E2 E3 E4 E5 E6 E7 E8 E9 E10 E11 E12 E13 E14 E15 E16 E17 E18 E19 E20 E21"/>  </vehicle> 
<vehicle type="CarA"  id="veh115" depart="54"  departLane="0" departPos="free" departSpeed="29.0" arrivalLane="current" arrivalPos="max"  > <route edges="E1 E2 E3 E4 E5 E6 E7 E8 E9 E10 E11 E12 E13 E14 E15 E16 E17 E18 E19 E20 E21"/>  </vehicle> 
<vehicle type="CarA"  id="veh4671" depart="56"  departLane="0"  departPos="free" departSpeed="29.0" arrivalLane="current" arrivalPos="max"  > <route edges="E12 E13 E14 E15 E16 E17 E18 E19 E20 E21"/>  </vehicle> 
<vehicle type="CarA"  id="veh4672" depart="56"  departLane="0"  departPos="free" departSpeed="29.0" arrivalLane="current" arrivalPos="max"  > <route edges="E12 E13 E14 E15 E16 E17 E18 E19 E20 E21"/>  </vehicle> 
<vehicle type="CarA"  id="veh116" depart="57"  departLane="1" departPos="free" departSpeed="29.0" arrivalLane="current" arrivalPos="max"  > <route edges="E1 E2 E3 E4 E5 E6 E7 E8 E9 E10 E11 E12 E13 E14 E15 E16 E17 E18 E19 E20 E21"/>  </vehicle> 
<vehicle type="CarA"  id="veh117" depart="57"  departLane="2" departPos="free" departSpeed="29.0" arrivalLane="current" arrivalPos="max"  > <route  edges="E1 E2 E3 E4 E5 E6 E7 E8 E9 E10 E11 E12 E13"/>  </vehicle> 
<vehicle type="CarA"  id="veh5142" depart="57"  departLane="0"  departPos="free" departSpeed="29.0" arrivalLane="current" arrivalPos="max" > <route  edges="E15 E16 E17 E18 E19 E20 E21"/>  </vehicle> 
<vehicle type="CarA"  id="veh118" depart="58"  departLane="3" departPos="free" departSpeed="29.0" arrivalLane="current" arrivalPos="max"  > <route edges="E1 E2 E3 E4 E5 E6 E7 E8 E9 E10 E11 E12 E13 E14 E15 E16 E17 E18 E19 E20 E21"/>  </vehicle> 
<vehicle type="CarA"  id="veh5143" depart="58"  departLane="0"  departPos="free" departSpeed="29.0" arrivalLane="current" arrivalPos="max" > <route  edges="E15 E16 E17 E18 E19 E20 E21"/>  </vehicle> 
<vehicle type="CarA"  id="veh4673" depart="58"  departLane="0"  departPos="free" departSpeed="29.0" arrivalLane="current" arrivalPos="max"  > <route edges="E12 E13 E14 E15 E16 E17 E18 E19 E20 E21"/>  </vehicle> 
<vehicle type="CarA"  id="veh119" depart="58"  departLane="0" departPos="free" departSpeed="29.0" arrivalLane="current" arrivalPos="max"  > <route edges="E1 E2 E3 E4 E5 E6 E7 E8 E9 E10 E11 E12 E13 E14 E15 E16 E17 E18 E19 E20 E21"/>  </vehicle> 
<vehicle type="CarA"  id="veh120" depart="59"  departLane="1" departPos="free" departSpeed="29.0" arrivalLane="current" arrivalPos="max"  > <route edges="E1 E2 E3 E4 E5 E6 E7 E8 E9 E10 E11 E12 E13 E14 E15 E16 E17 E18 E19 E20 E21"/>  </vehicle> 
<vehicle type="CarA"  id="veh121" depart="59"  departLane="2" departPos="free" departSpeed="29.0" arrivalLane="current" arrivalPos="max"  > <route  edges="E1 E2 E3 E4 E5 E6 E7 E8 E9 E10 E11 E12 E13 E14 E15 E16 E17 E18 E19 S20"/>  </vehicle> 
<vehicle type="CarA"  id="veh4169" depart="59"  departLane="0"  departPos="free" departSpeed="29.0" arrivalLane="current" arrivalPos="max"  > <route edges="E11 E12 E13 E14 E15 E16 E17 E18 E19 E20 E21"/>  </vehicle> 
<vehicle type="CarA"  id="veh122" depart="60"  departLane="3" departPos="free" departSpeed="29.0" arrivalLane="current" arrivalPos="max"  > <route edges="E1 E2 E3 E4 E5 E6 E7 E8 E9 E10 E11 E12 E13 E14 E15 E16 E17 E18 E19 E20 E21"/>  </vehicle> 
<vehicle type="CarA"  id="veh123" depart="60"  departLane="0" departPos="free" departSpeed="29.0" arrivalLane="current" arrivalPos="max"  > <route edges="E1 E2 E3 E4 E5 E6 E7 E8 E9 E10 E11 E12 E13 E14 E15 E16 E17 E18 E19 E20 E21"/>  </vehicle> 
<vehicle type="CarA"  id="veh3681" depart="60"  departLane="0"  departPos="free" departSpeed="29.0" arrivalLane="current" arrivalPos="max"  > <route  edges="E2 E3 E4 E5 E6 E7 E8 E9 E10 E11 E12 E13 E14 E15 E16 E17 E18 E19 E20 E21"/>  </vehicle> 
<vehicle type="CarA"  id="veh4674" depart="61"  departLane="0"  departPos="free" departSpeed="29.0" arrivalLane="current" arrivalPos="max"  > <route edges="E12 E13 E14 E15 E16 E17 E18 E19 E20 E21"/>  </vehicle> 
<vehicle type="CarA"  id="veh5144" depart="62"  departLane="0"  departPos="free" departSpeed="29.0" arrivalLane="current" arrivalPos="max" > <route  edges="S15 E15 E16 E17 E18 E19 E20 E21"/>  </vehicle> 
<vehicle type="CarA"  id="veh4675" depart="62"  departLane="0"  departPos="free" departSpeed="29.0" arrivalLane="current" arrivalPos="max"  > <route edges="E12 E13 E14 E15 E16 E17 E18 E19 E20 E21"/>  </vehicle> 
<vehicle type="CarA"  id="veh124" depart="62"  departLane="1" departPos="free" departSpeed="29.0" arrivalLane="current" arrivalPos="max"  > <route edges="E1 E2 E3 E4 E5 E6 E7 E8 E9 E10 E11 E12 E13 E14 E15 E16 E17 E18 E19 E20 E21"/>  </vehicle> 
<vehicle type="CarA"  id="veh5145" depart="63"  departLane="0"  departPos="free" departSpeed="29.0" arrivalLane="current" arrivalPos="max" > <route  edges="E15 E16 E17 E18 E19 E20 E21"/>  </vehicle> 
<vehicle type="CarA"  id="veh125" depart="63"  departLane="2" departPos="free" departSpeed="29.0" arrivalLane="current" arrivalPos="max"  > <route edges="E1 E2 E3 E4 E5 E6 E7 E8 E9 E10 E11 E12 E13 E14 E15 E16 E17 E18 E19 E20 E21"/>  </vehicle> 
<vehicle type="CarA"  id="veh126" depart="64"  departLane="3" departPos="free" departSpeed="29.0" arrivalLane="current" arrivalPos="max"  > <route edges="E1 E2 E3 E4 E5 E6 E7 E8 E9 E10 E11 E12 E13 E14 E15 E16 E17 E18 E19 E20 E21"/>  </vehicle> 
<vehicle type="CarA"  id="veh3682" depart="64"  departLane="0"  departPos="free" departSpeed="29.0" arrivalLane="current" arrivalPos="max"  > <route  edges="E2 E3 E4 E5 E6 E7 E8 E9 E10 E11 E12 E13 E14 E15 E16 E17 E18 E19 E20 E21"/>  </vehicle> 
<vehicle type="CarA"  id="veh127" depart="64"  departLane="0" departPos="free" departSpeed="29.0" arrivalLane="current" arrivalPos="max"  > <route edges="E1 E2 E3 E4 E5 E6 E7 E8 E9 E10 E11 E12 E13 E14 E15 E16 E17 E18 E19 E20 E21"/>  </vehicle> 
<vehicle type="CarA"  id="veh128" depart="64"  departLane="1" departPos="free" departSpeed="29.0" arrivalLane="current" arrivalPos="max"  > <route edges="E1 E2 E3 E4 E5 E6 E7 E8 E9 E10 E11 E12 E13 E14 E15 E16 E17 E18 E19 E20 E21"/>  </vehicle> 
<vehicle type="CarA"  id="veh129" depart="64"  departLane="2" departPos="free" departSpeed="29.0" arrivalLane="current" arrivalPos="max"  > <route edges="E1 E2 E3 E4 E5 E6 E7 E8 E9 E10 E11 E12 E13 E14 E15 E16 E17 E18 E19 E20 E21"/>  </vehicle> 
<vehicle type="CarA"  id="veh130" depart="65"  departLane="3" departPos="free" departSpeed="29.0" arrivalLane="current" arrivalPos="max"  > <route edges="E1 E2 E3 E4 E5 E6 E7 E8 E9 E10 E11 E12 E13 E14 E15 E16 E17 E18 E19 E20 E21"/>  </vehicle> 
<vehicle type="CarA"  id="veh4676" depart="65"  departLane="0"  departPos="free" departSpeed="29.0" arrivalLane="current" arrivalPos="max"  > <route edges="S12 E12 E13 E14 E15 E16 E17 E18 E19 E20 E21"/>  </vehicle> 
<vehicle type="CarA"  id="veh131" depart="65"  departLane="0" departPos="free" departSpeed="29.0" arrivalLane="current" arrivalPos="max"  > <route edges="E1 E2 E3 E4 E5 E6 E7 E8 E9 E10 E11 E12 E13 E14 E15 E16 E17 E18 E19 E20 E21"/>  </vehicle> 
<vehicle type="CarA"  id="veh132" depart="66"  departLane="1" departPos="free" departSpeed="29.0" arrivalLane="current" arrivalPos="max"  > <route edges="E1 E2 E3 E4 E5 E6 E7 E8 E9 E10 E11 E12 E13 E14 E15 E16 E17 E18 E19 E20 E21"/>  </vehicle> 
<vehicle type="CarA"  id="veh133" depart="66"  departLane="2" departPos="free" departSpeed="29.0" arrivalLane="current" arrivalPos="max"  > <route edges="E1 E2 E3 E4 E5 E6 E7 E8 E9 E10 E11 E12 E13 E14 E15 E16 E17 E18 E19 E20 E21"/>  </vehicle> 
<vehicle type="CarA"  id="veh134" depart="66"  departLane="3" departPos="free" departSpeed="29.0" arrivalLane="current" arrivalPos="max"  > <route edges="E1 E2 E3 E4 E5 E6 E7 E8 E9 E10 E11 E12 E13 E14 E15 E16 E17 E18 E19 E20 E21"/>  </vehicle> 
<vehicle type="CarA"  id="veh5146" depart="66"  departLane="0"  departPos="free" departSpeed="29.0" arrivalLane="current" arrivalPos="max" > <route  edges="E15 E16 E17 E18 E19 E20 E21"/>  </vehicle> 
<vehicle type="CarA"  id="veh135" depart="66"  departLane="0" departPos="free" departSpeed="29.0" arrivalLane="current" arrivalPos="max"  > <route edges="E1 E2 E3 E4 E5 E6 E7 E8 E9 E10 E11 E12 E13 E14 E15 E16 E17 E18 E19 E20 E21"/>  </vehicle> 
<vehicle type="CarA"  id="veh136" depart="66"  departLane="1" departPos="free" departSpeed="29.0" arrivalLane="current" arrivalPos="max"  > <route edges="E1 E2 E3 E4 E5 E6 E7 E8 E9 E10 E11 E12 E13 E14 E15 E16 E17 E18 E19 E20 E21"/>  </vehicle> 
<vehicle type="CarA"  id="veh5147" depart="67"  departLane="0"  departPos="free" departSpeed="29.0" arrivalLane="current" arrivalPos="max" > <route  edges="E15 E16 E17 E18 E19 E20 E21"/>  </vehicle> 
<vehicle type="CarA"  id="veh4170" depart="68"  departLane="0"  departPos="free" departSpeed="29.0" arrivalLane="current" arrivalPos="max"  > <route edges="E11 E12 E13 E14 E15 E16 E17 E18 E19 E20 E21"/>  </vehicle> 
<vehicle type="CarA"  id="veh137" depart="68"  departLane="2" departPos="free" departSpeed="29.0" arrivalLane="current" arrivalPos="max"  > <route edges="E1 E2 E3 E4 E5 E6 E7 E8 E9 E10 E11 E12 E13 E14 E15 E16 E17 E18 E19 E20 E21"/>  </vehicle> 
<vehicle type="CarA"  id="veh5148" depart="69"  departLane="0"  departPos="free" departSpeed="29.0" arrivalLane="current" arrivalPos="max" > <route  edges="E15 E16 E17 E18 E19 E20 E21"/>  </vehicle> 
<vehicle type="CarA"  id="veh138" depart="69"  departLane="3" departPos="free" departSpeed="29.0" arrivalLane="current" arrivalPos="max"  > <route edges="E1 E2 E3 E4 E5 E6 E7 E8 E9 E10 E11 E12 E13 E14 E15 E16 E17 E18 E19 E20 E21"/>  </vehicle> 
<vehicle type="CarA"  id="veh139" depart="69"  departLane="0" departPos="free" departSpeed="29.0" arrivalLane="current" arrivalPos="max"  > <route edges="E1 E2 E3 E4 E5 E6 E7 E8 E9 E10 E11 E12 E13 E14 E15 E16 E17 E18 E19 E20 E21"/>  </vehicle> 
<vehicle type="CarA"  id="veh140" depart="70"  departLane="1" departPos="free" departSpeed="29.0" arrivalLane="current" arrivalPos="max"  > <route edges="E1 E2 E3 E4 E5 E6 E7 E8 E9 E10 E11 E12 E13 E14 E15 E16 E17 E18 E19 E20 E21"/>  </vehicle> 
<vehicle type="CarA"  id="veh4677" depart="70"  departLane="0"  departPos="free" departSpeed="29.0" arrivalLane="current" arrivalPos="max"  > <route edges="E12 E13 E14 E15 E16 E17 E18 E19 E20 E21"/>  </vehicle> 
<vehicle type="CarA"  id="veh141" depart="70"  departLane="2" departPos="free" departSpeed="29.0" arrivalLane="current" arrivalPos="max"  > <route edges="E1 E2 E3 E4 E5 E6 E7 E8 E9 E10 E11 E12 E13 E14 E15 E16 E17 E18 E19 E20 E21"/>  </vehicle> 
<vehicle type="CarA"  id="veh4171" depart="71"  departLane="0"  departPos="free" departSpeed="29.0" arrivalLane="current" arrivalPos="max"  > <route edges="S10 E10 E11 E12 E13 E14 E15 E16 E17 E18 E19 E20 E21"/>  </vehicle> 
<vehicle type="CarA"  id="veh4678" depart="71"  departLane="0"  departPos="free" departSpeed="29.0" arrivalLane="current" arrivalPos="max"  > <route edges="E12 E13 E14 E15 E16 E17 E18 E19 E20 E21"/>  </vehicle> 
<vehicle type="CarA"  id="veh4679" depart="71"  departLane="0"  departPos="free" departSpeed="29.0" arrivalLane="current" arrivalPos="max"  > <route edges="E12 E13 E14 E15 E16 E17 E18 E19 E20 E21"/>  </vehicle> 
<vehicle type="CarA"  id="veh142" depart="72"  departLane="3" departPos="free" departSpeed="29.0" arrivalLane="current" arrivalPos="max"  > <route edges="E1 E2 E3 E4 E5 E6 E7 E8 E9 E10 E11 E12 E13 E14 E15 E16 E17 E18 E19 E20 E21"/>  </vehicle> 
<vehicle type="CarA"  id="veh143" depart="72"  departLane="0" departPos="free" departSpeed="29.0" arrivalLane="current" arrivalPos="max"  > <route edges="E1 E2 E3 E4 E5 E6 E7 E8 E9 E10 E11 E12 E13 E14 E15 E16 E17 E18 E19 E20 E21"/>  </vehicle> 
<vehicle type="CarA"  id="veh5149" depart="72"  departLane="0"  departPos="free" departSpeed="29.0" arrivalLane="current" arrivalPos="max" > <route  edges="E15 E16 E17 E18 E19 E20 E21"/>  </vehicle> 
<vehicle type="CarA"  id="veh144" depart="72"  departLane="1" departPos="free" departSpeed="29.0" arrivalLane="current" arrivalPos="max"  > <route edges="E1 E2 E3 E4 E5 E6 E7 E8 E9 E10 E11 E12 E13 E14 E15 E16 E17 E18 E19 E20 E21"/>  </vehicle> 
<vehicle type="CarA"  id="veh145" depart="72"  departLane="2" departPos="free" departSpeed="29.0" arrivalLane="current" arrivalPos="max"  > <route edges="E1 E2 E3 E4 E5 E6 E7 E8 E9 E10 E11 E12 E13 E14 E15 E16 E17 E18 E19 E20 E21"/>  </vehicle> 
<vehicle type="CarA"  id="veh146" depart="73"  departLane="3" departPos="free" departSpeed="29.0" arrivalLane="current" arrivalPos="max"  > <route  edges="E1 E2 E3 E4 E5 E6 E7 E8 E9 E10 E11 E12 E13 E14 E15 E16 E17 E18 E19 S20"/>  </vehicle> 
<vehicle type="CarA"  id="veh5150" depart="73"  departLane="0"  departPos="free" departSpeed="29.0" arrivalLane="current" arrivalPos="max" > <route  edges="S15 E15 E16 E17 E18 E19 E20 E21"/>  </vehicle> 
<vehicle type="CarA"  id="veh147" depart="73"  departLane="0" departPos="free" departSpeed="29.0" arrivalLane="current" arrivalPos="max"  > <route edges="E1 E2 E3 E4 E5 E6 E7 E8 E9 E10 E11 E12 E13 E14 E15 E16 E17 E18 E19 E20 E21"/>  </vehicle> 
<vehicle type="CarA"  id="veh148" depart="74"  departLane="1" departPos="free" departSpeed="29.0" arrivalLane="current" arrivalPos="max"  > <route edges="E1 E2 E3 E4 E5 E6 E7 E8 E9 E10 E11 E12 E13 E14 E15 E16 E17 E18 E19 E20 E21"/>  </vehicle> 
<vehicle type="CarA"  id="veh149" depart="74"  departLane="2" departPos="free" departSpeed="29.0" arrivalLane="current" arrivalPos="max"  > <route edges="E1 E2 E3 E4 E5 E6 E7 E8 E9 E10 E11 E12 E13 E14 E15 E16 E17 E18 E19 E20 E21"/>  </vehicle> 
<vehicle type="CarA"  id="veh150" depart="74"  departLane="3" departPos="free" departSpeed="29.0" arrivalLane="current" arrivalPos="max"  > <route edges="E1 E2 E3 E4 E5 E6 E7 E8 E9 E10 E11 E12 E13 E14 E15 E16 E17 E18 E19 E20 E21"/>  </vehicle> 
<vehicle type="CarA"  id="veh4680" depart="75"  departLane="0"  departPos="free" departSpeed="29.0" arrivalLane="current" arrivalPos="max"  > <route edges="E12 E13 E14 E15 E16 E17 E18 E19 E20 E21"/>  </vehicle> 
<vehicle type="CarA"  id="veh151" depart="76"  departLane="0" departPos="free" departSpeed="29.0" arrivalLane="current" arrivalPos="max"  > <route  edges="E1 E2 E3 E4 E5 E6 E7 E8 E9 E10 E11 E12 E13 E14 E15 E16 E17 E18 E19 S20"/>  </vehicle> 
<vehicle type="CarA"  id="veh152" depart="76"  departLane="1" departPos="free" departSpeed="29.0" arrivalLane="current" arrivalPos="max"  > <route  edges="E1 E2 E3 E4 E5 E6 E7 E8 E9 E10 E11 E12 E13"/>  </vehicle> 
<vehicle type="CarA"  id="veh4172" depart="76"  departLane="0"  departPos="free" departSpeed="29.0" arrivalLane="current" arrivalPos="max"  > <route edges="E11 E12 E13 E14 E15 E16 E17 E18 E19 E20 E21"/>  </vehicle> 
<vehicle type="CarA"  id="veh3683" depart="76"  departLane="0"  departPos="free" departSpeed="29.0" arrivalLane="current" arrivalPos="max"  > <route  edges="E2 E3 E4 E5 E6 E7 E8 E9 E10 E11 E12 E13 E14 E15 E16 E17 E18 E19 E20 E21"/>  </vehicle> 
<vehicle type="CarA"  id="veh4173" depart="76"  departLane="0"  departPos="free" departSpeed="29.0" arrivalLane="current" arrivalPos="max"  > <route edges="E11 E12 E13 E14 E15 E16 E17 E18 E19 E20 E21"/>  </vehicle> 
<vehicle type="CarA"  id="veh153" depart="77"  departLane="2" departPos="free" departSpeed="29.0" arrivalLane="current" arrivalPos="max"  > <route edges="E1 E2 E3 E4 E5 E6 E7 E8 E9 E10 E11 E12 E13 E14 E15 E16 E17 E18 E19 E20 E21"/>  </vehicle> 
<vehicle type="CarA"  id="veh154" depart="77"  departLane="3" departPos="free" departSpeed="29.0" arrivalLane="current" arrivalPos="max"  > <route  edges="E1 E2 E3 E4 E5 E6 E7 E8 E9 E10 E11 E12 E13"/>  </vehicle> 
<vehicle type="CarA"  id="veh155" depart="77"  departLane="0" departPos="free" departSpeed="29.0" arrivalLane="current" arrivalPos="max"  > <route edges="E1 E2 E3 E4 E5 E6 E7 E8 E9 E10 E11 E12 E13 E14 E15 E16 E17 E18 E19 E20 E21"/>  </vehicle> 
<vehicle type="CarA"  id="veh156" depart="78"  departLane="1" departPos="free" departSpeed="29.0" arrivalLane="current" arrivalPos="max"  > <route edges="E1 E2 E3 E4 E5 E6 E7 E8 E9 E10 E11 E12 E13 E14 E15 E16 E17 E18 E19 E20 E21"/>  </vehicle> 
<vehicle type="CarA"  id="veh157" depart="78"  departLane="2" departPos="free" departSpeed="29.0" arrivalLane="current" arrivalPos="max"  > <route edges="E1 E2 E3 E4 E5 E6 E7 E8 E9 E10 E11 E12 E13 E14 E15 E16 E17 E18 E19 E20 E21"/>  </vehicle> 
<vehicle type="CarA"  id="veh5151" depart="78"  departLane="0"  departPos="free" departSpeed="29.0" arrivalLane="current" arrivalPos="max" > <route  edges="S15 E15 E16 E17 E18 E19 E20 E21"/>  </vehicle> 
<vehicle type="CarA"  id="veh158" depart="78"  departLane="3" departPos="free" departSpeed="29.0" arrivalLane="current" arrivalPos="max"  > <route edges="E1 E2 E3 E4 E5 E6 E7 E8 E9 E10 E11 E12 E13 E14 E15 E16 E17 E18 E19 E20 E21"/>  </vehicle> 
<vehicle type="CarA"  id="veh5152" depart="79"  departLane="0"  departPos="free" departSpeed="29.0" arrivalLane="current" arrivalPos="max" > <route  edges="E15 E16 E17 E18 E19 E20 E21"/>  </vehicle> 
<vehicle type="CarA"  id="veh3684" depart="79"  departLane="0"  departPos="free" departSpeed="29.0" arrivalLane="current" arrivalPos="max"  > <route  edges="E2 E3 E4 E5 E6 E7 E8 E9 E10 E11 E12 E13 E14 E15 E16 E17 E18 E19 E20 E21"/>  </vehicle> 
<vehicle type="CarA"  id="veh5153" depart="80"  departLane="0"  departPos="free" departSpeed="29.0" arrivalLane="current" arrivalPos="max" > <route  edges="E15 E16 E17 E18 E19 E20 E21"/>  </vehicle> 
<vehicle type="CarA"  id="veh4174" depart="80"  departLane="0"  departPos="free" departSpeed="29.0" arrivalLane="current" arrivalPos="max"  > <route edges="E11 E12 E13 E14 E15 E16 E17 E18 E19 E20 E21"/>  </vehicle> 
<vehicle type="CarA"  id="veh5154" depart="80"  departLane="0"  departPos="free" departSpeed="29.0" arrivalLane="current" arrivalPos="max" > <route  edges="S15 E15 E16 E17 E18 E19 E20 E21"/>  </vehicle> 
<vehicle type="CarA"  id="veh159" depart="80"  departLane="0" departPos="free" departSpeed="29.0" arrivalLane="current" arrivalPos="max"  > <route  edges="E1 E2 E3 E4 E5 E6 E7 E8 E9 E10 E11 E12 E13"/>  </vehicle> 
<vehicle type="CarA"  id="veh4681" depart="81"  departLane="0"  departPos="free" departSpeed="29.0" arrivalLane="current" arrivalPos="max"  > <route edges="S12 E12 E13 E14 E15 E16 E17 E18 E19 E20 E21"/>  </vehicle> 
<vehicle type="CarA"  id="veh3685" depart="81"  departLane="0"  departPos="free" departSpeed="29.0" arrivalLane="current" arrivalPos="max"  > <route  edges="S2 E2 E3 E4 E5 E6 E7 E8 E9 E10 E11 E12 E13 E14 E15 E16 E17 E18 E19 E20 E21"/>  </vehicle> 
<vehicle type="CarA"  id="veh160" depart="81"  departLane="1" departPos="free" departSpeed="29.0" arrivalLane="current" arrivalPos="max"  > <route edges="E1 E2 E3 E4 E5 E6 E7 E8 E9 E10 E11 E12 E13 E14 E15 E16 E17 E18 E19 E20 E21"/>  </vehicle> 
<vehicle type="CarA"  id="veh5155" depart="82"  departLane="0"  departPos="free" departSpeed="29.0" arrivalLane="current" arrivalPos="max" > <route  edges="E15 E16 E17 E18 E19 E20 E21"/>  </vehicle> 
<vehicle type="CarA"  id="veh161" depart="82"  departLane="2" departPos="free" departSpeed="29.0" arrivalLane="current" arrivalPos="max"  > <route edges="E1 E2 E3 E4 E5 E6 E7 E8 E9 E10 E11 E12 E13 E14 E15 E16 E17 E18 E19 E20 E21"/>  </vehicle> 
<vehicle type="CarA"  id="veh162" depart="82"  departLane="3" departPos="free" departSpeed="29.0" arrivalLane="current" arrivalPos="max"  > <route edges="E1 E2 E3 E4 E5 E6 E7 E8 E9 E10 E11 E12 E13 E14 E15 E16 E17 E18 E19 E20 E21"/>  </vehicle> 
<vehicle type="CarA"  id="veh163" depart="82"  departLane="0" departPos="free" departSpeed="29.0" arrivalLane="current" arrivalPos="max"  > <route edges="E1 E2 E3 E4 E5 E6 E7 E8 E9 E10 E11 E12 E13 E14 E15 E16 E17 E18 E19 E20 E21"/>  </vehicle> 
<vehicle type="CarA"  id="veh4175" depart="82"  departLane="0"  departPos="free" departSpeed="29.0" arrivalLane="current" arrivalPos="max"  > <route edges="E11 E12 E13 E14 E15 E16 E17 E18 E19 E20 E21"/>  </vehicle> 
<vehicle type="CarA"  id="veh5156" depart="83"  departLane="0"  departPos="free" departSpeed="29.0" arrivalLane="current" arrivalPos="max" > <route  edges="E15 E16 E17 E18 E19 E20 E21"/>  </vehicle> 
<vehicle type="CarA"  id="veh164" depart="83"  departLane="1" departPos="free" departSpeed="29.0" arrivalLane="current" arrivalPos="max"  > <route edges="E1 E2 E3 E4 E5 E6 E7 E8 E9 E10 E11 E12 E13 E14 E15 E16 E17 E18 E19 E20 E21"/>  </vehicle> 
<vehicle type="CarA"  id="veh5157" depart="83"  departLane="0"  departPos="free" departSpeed="29.0" arrivalLane="current" arrivalPos="max" > <route  edges="E15 E16 E17 E18 E19 E20 E21"/>  </vehicle> 
<vehicle type="CarA"  id="veh3686" depart="83"  departLane="0"  departPos="free" departSpeed="29.0" arrivalLane="current" arrivalPos="max"  > <route  edges="E2 E3 E4 E5 E6 E7 E8 E9 E10 E11 E12 E13 E14 E15 E16 E17 E18 E19 E20 E21"/>  </vehicle> 
<vehicle type="CarA"  id="veh3687" depart="83"  departLane="0"  departPos="free" departSpeed="29.0" arrivalLane="current" arrivalPos="max"  > <route  edges="E2 E3 E4 E5 E6 E7 E8 E9 E10 E11 E12 E13 E14 E15 E16 E17 E18 E19 E20 E21"/>  </vehicle> 
<vehicle type="CarA"  id="veh165" depart="83"  departLane="2" departPos="free" departSpeed="29.0" arrivalLane="current" arrivalPos="max"  > <route edges="E1 E2 E3 E4 E5 E6 E7 E8 E9 E10 E11 E12 E13 E14 E15 E16 E17 E18 E19 E20 E21"/>  </vehicle> 
<vehicle type="CarA"  id="veh166" depart="83"  departLane="3" departPos="free" departSpeed="29.0" arrivalLane="current" arrivalPos="max"  > <route edges="E1 E2 E3 E4 E5 E6 E7 E8 E9 E10 E11 E12 E13 E14 E15 E16 E17 E18 E19 E20 E21"/>  </vehicle> 
<vehicle type="CarA"  id="veh5158" depart="84"  departLane="0"  departPos="free" departSpeed="29.0" arrivalLane="current" arrivalPos="max" > <route  edges="E15 E16 E17 E18 E19 E20 E21"/>  </vehicle> 
<vehicle type="CarA"  id="veh5159" depart="84"  departLane="0"  departPos="free" departSpeed="29.0" arrivalLane="current" arrivalPos="max" > <route  edges="E15 E16 E17 E18 E19 E20 E21"/>  </vehicle> 
<vehicle type="CarA"  id="veh167" depart="84"  departLane="0" departPos="free" departSpeed="29.0" arrivalLane="current" arrivalPos="max"  > <route  edges="E1 E2 E3 E4 E5 E6 E7 E8 E9 E10 E11 E12 E13"/>  </vehicle> 
<vehicle type="CarA"  id="veh168" depart="85"  departLane="1" departPos="free" departSpeed="29.0" arrivalLane="current" arrivalPos="max"  > <route edges="E1 E2 E3 E4 E5 E6 E7 E8 E9 E10 E11 E12 E13 E14 E15 E16 E17 E18 E19 E20 E21"/>  </vehicle> 
<vehicle type="CarA"  id="veh169" depart="85"  departLane="2" departPos="free" departSpeed="29.0" arrivalLane="current" arrivalPos="max"  > <route edges="E1 E2 E3 E4 E5 E6 E7 E8 E9 E10 E11 E12 E13 E14 E15 E16 E17 E18 E19 E20 E21"/>  </vehicle> 
<vehicle type="CarA"  id="veh170" depart="85"  departLane="3" departPos="free" departSpeed="29.0" arrivalLane="current" arrivalPos="max"  > <route edges="E1 E2 E3 E4 E5 E6 E7 E8 E9 E10 E11 E12 E13 E14 E15 E16 E17 E18 E19 E20 E21"/>  </vehicle> 
<vehicle type="CarA"  id="veh171" depart="85"  departLane="0" departPos="free" departSpeed="29.0" arrivalLane="current" arrivalPos="max"  > <route edges="E1 E2 E3 E4 E5 E6 E7 E8 E9 E10 E11 E12 E13 E14 E15 E16 E17 E18 E19 E20 E21"/>  </vehicle> 
<vehicle type="CarA"  id="veh172" depart="85"  departLane="1" departPos="free" departSpeed="29.0" arrivalLane="current" arrivalPos="max"  > <route edges="E1 E2 E3 E4 E5 E6 E7 E8 E9 E10 E11 E12 E13 E14 E15 E16 E17 E18 E19 E20 E21"/>  </vehicle> 
<vehicle type="CarA"  id="veh5160" depart="86"  departLane="0"  departPos="free" departSpeed="29.0" arrivalLane="current" arrivalPos="max" > <route  edges="E15 E16 E17 E18 E19 E20 E21"/>  </vehicle> 
<vehicle type="CarA"  id="veh5161" depart="86"  departLane="0"  departPos="free" departSpeed="29.0" arrivalLane="current" arrivalPos="max" > <route  edges="S15 E15 E16 E17 E18 E19 E20 E21"/>  </vehicle> 
<vehicle type="CarA"  id="veh173" depart="86"  departLane="2" departPos="free" departSpeed="29.0" arrivalLane="current" arrivalPos="max"  > <route edges="E1 E2 E3 E4 E5 E6 E7 E8 E9 E10 E11 E12 E13 E14 E15 E16 E17 E18 E19 E20 E21"/>  </vehicle> 
<vehicle type="CarA"  id="veh3688" depart="86"  departLane="0"  departPos="free" departSpeed="29.0" arrivalLane="current" arrivalPos="max"  > <route  edges="E2 E3 E4 E5 E6 E7 E8 E9 E10 E11 E12 E13 E14 E15 E16 E17 E18 E19 E20 E21"/>  </vehicle> 
<vehicle type="CarA"  id="veh174" depart="86"  departLane="3" departPos="free" departSpeed="29.0" arrivalLane="current" arrivalPos="max"  > <route edges="E1 E2 E3 E4 E5 E6 E7 E8 E9 E10 E11 E12 E13 E14 E15 E16 E17 E18 E19 E20 E21"/>  </vehicle> 
<vehicle type="CarA"  id="veh4682" depart="86"  departLane="0"  departPos="free" departSpeed="29.0" arrivalLane="current" arrivalPos="max"  > <route edges="E12 E13 E14 E15 E16 E17 E18 E19 E20 E21"/>  </vehicle> 
<vehicle type="CarA"  id="veh175" depart="87"  departLane="0" departPos="free" departSpeed="29.0" arrivalLane="current" arrivalPos="max"  > <route edges="E1 E2 E3 E4 E5 E6 E7 E8 E9 E10 E11 E12 E13 E14 E15 E16 E17 E18 E19 E20 E21"/>  </vehicle> 
<vehicle type="CarA"  id="veh176" depart="87"  departLane="1" departPos="free" departSpeed="29.0" arrivalLane="current" arrivalPos="max"  > <route edges="E1 E2 E3 E4 E5 E6 E7 E8 E9 E10 E11 E12 E13 E14 E15 E16 E17 E18 E19 E20 E21"/>  </vehicle> 
<vehicle type="CarA"  id="veh3689" depart="87"  departLane="0"  departPos="free" departSpeed="29.0" arrivalLane="current" arrivalPos="max"  > <route  edges="E2 E3 E4 E5 E6 E7 E8 E9 E10 E11 E12 E13 E14 E15 E16 E17 E18 E19 E20 E21"/>  </vehicle> 
<vehicle type="CarA"  id="veh4176" depart="87"  departLane="0"  departPos="free" departSpeed="29.0" arrivalLane="current" arrivalPos="max"  > <route edges="E11 E12 E13 E14 E15 E16 E17 E18 E19 E20 E21"/>  </vehicle> 
<vehicle type="CarA"  id="veh5162" depart="88"  departLane="0"  departPos="free" departSpeed="29.0" arrivalLane="current" arrivalPos="max" > <route  edges="E15 E16 E17 E18 E19 E20 E21"/>  </vehicle> 
<vehicle type="CarA"  id="veh177" depart="88"  departLane="2" departPos="free" departSpeed="29.0" arrivalLane="current" arrivalPos="max"  > <route edges="E1 E2 E3 E4 E5 E6 E7 E8 E9 E10 E11 E12 E13 E14 E15 E16 E17 E18 E19 E20 E21"/>  </vehicle> 
<vehicle type="CarA"  id="veh3690" depart="89"  departLane="0"  departPos="free" departSpeed="29.0" arrivalLane="current" arrivalPos="max"  > <route  edges="E2 E3 E4 E5 E6 E7 E8 E9 E10 E11 E12 E13 E14 E15 E16 E17 E18 E19 E20 E21"/>  </vehicle> 
<vehicle type="CarA"  id="veh4177" depart="89"  departLane="0"  departPos="free" departSpeed="29.0" arrivalLane="current" arrivalPos="max"  > <route edges="E11 E12 E13 E14 E15 E16 E17 E18 E19 E20 E21"/>  </vehicle> 
<vehicle type="CarA"  id="veh178" depart="89"  departLane="3" departPos="free" departSpeed="29.0" arrivalLane="current" arrivalPos="max"  > <route  edges="E1 E2 E3 E4 E5 E6 E7 E8 E9 E10 E11 E12 E13"/>  </vehicle> 
<vehicle type="CarA"  id="veh179" depart="90"  departLane="0" departPos="free" departSpeed="29.0" arrivalLane="current" arrivalPos="max"  > <route edges="E1 E2 E3 E4 E5 E6 E7 E8 E9 E10 E11 E12 E13 E14 E15 E16 E17 E18 E19 E20 E21"/>  </vehicle> 
<vehicle type="CarA"  id="veh180" depart="90"  departLane="1" departPos="free" departSpeed="29.0" arrivalLane="current" arrivalPos="max"  > <route edges="E1 E2 E3 E4 E5 E6 E7 E8 E9 E10 E11 E12 E13 E14 E15 E16 E17 E18 E19 E20 E21"/>  </vehicle> 
<vehicle type="CarA"  id="veh181" depart="90"  departLane="2" departPos="free" departSpeed="29.0" arrivalLane="current" arrivalPos="max"  > <route edges="E1 E2 E3 E4 E5 E6 E7 E8 E9 E10 E11 E12 E13 E14 E15 E16 E17 E18 E19 E20 E21"/>  </vehicle> 
<vehicle type="CarA"  id="veh182" depart="91"  departLane="3" departPos="free" departSpeed="29.0" arrivalLane="current" arrivalPos="max"  > <route edges="E1 E2 E3 E4 E5 E6 E7 E8 E9 E10 E11 E12 E13 E14 E15 E16 E17 E18 E19 E20 E21"/>  </vehicle> 
<vehicle type="CarA"  id="veh183" depart="91"  departLane="0" departPos="free" departSpeed="29.0" arrivalLane="current" arrivalPos="max"  > <route edges="E1 E2 E3 E4 E5 E6 E7 E8 E9 E10 E11 E12 E13 E14 E15 E16 E17 E18 E19 E20 E21"/>  </vehicle> 
<vehicle type="CarA"  id="veh184" depart="91"  departLane="1" departPos="free" departSpeed="29.0" arrivalLane="current" arrivalPos="max"  > <route edges="E1 E2 E3 E4 E5 E6 E7 E8 E9 E10 E11 E12 E13 E14 E15 E16 E17 E18 E19 E20 E21"/>  </vehicle> 
<vehicle type="CarA"  id="veh5163" depart="91"  departLane="0"  departPos="free" departSpeed="29.0" arrivalLane="current" arrivalPos="max" > <route  edges="E15 E16 E17 E18 E19 E20 E21"/>  </vehicle> 
<vehicle type="CarA"  id="veh185" depart="92"  departLane="2" departPos="free" departSpeed="29.0" arrivalLane="current" arrivalPos="max"  > <route edges="E1 E2 E3 E4 E5 E6 E7 E8 E9 E10 E11 E12 E13 E14 E15 E16 E17 E18 E19 E20 E21"/>  </vehicle> 
<vehicle type="CarA"  id="veh4178" depart="92"  departLane="0"  departPos="free" departSpeed="29.0" arrivalLane="current" arrivalPos="max"  > <route edges="S10 E10 E11 E12 E13 E14 E15 E16 E17 E18 E19 E20 E21"/>  </vehicle> 
<vehicle type="CarA"  id="veh4179" depart="92"  departLane="0"  departPos="free" departSpeed="29.0" arrivalLane="current" arrivalPos="max"  > <route edges="S10 E10 E11 E12 E13 E14 E15 E16 E17 E18 E19 E20 E21"/>  </vehicle> 
<vehicle type="CarA"  id="veh186" depart="93"  departLane="3" departPos="free" departSpeed="29.0" arrivalLane="current" arrivalPos="max"  > <route edges="E1 E2 E3 E4 E5 E6 E7 E8 E9 E10 E11 E12 E13 E14 E15 E16 E17 E18 E19 E20 E21"/>  </vehicle> 
<vehicle type="CarA"  id="veh187" depart="93"  departLane="0" departPos="free" departSpeed="29.0" arrivalLane="current" arrivalPos="max"  > <route  edges="E1 E2 E3 E4 E5 E6 E7 E8 E9 E10 E11 E12 E13"/>  </vehicle> 
<vehicle type="CarA"  id="veh4180" depart="93"  departLane="0"  departPos="free" departSpeed="29.0" arrivalLane="current" arrivalPos="max"  > <route edges="S10 E10 E11 E12 E13 E14 E15 E16 E17 E18 E19 E20 E21"/>  </vehicle> 
<vehicle type="CarA"  id="veh4181" depart="94"  departLane="0"  departPos="free" departSpeed="29.0" arrivalLane="current" arrivalPos="max"  > <route edges="E11 E12 E13 E14 E15 E16 E17 E18 E19 E20 E21"/>  </vehicle> 
<vehicle type="CarA"  id="veh5164" depart="95"  departLane="0"  departPos="free" departSpeed="29.0" arrivalLane="current" arrivalPos="max" > <route  edges="E15 E16 E17 E18 E19 E20 E21"/>  </vehicle> 
<vehicle type="CarA"  id="veh188" depart="95"  departLane="1" departPos="free" departSpeed="29.0" arrivalLane="current" arrivalPos="max"  > <route edges="E1 E2 E3 E4 E5 E6 E7 E8 E9 E10 E11 E12 E13 E14 E15 E16 E17 E18 E19 E20 E21"/>  </vehicle> 
<vehicle type="CarA"  id="veh189" depart="95"  departLane="2" departPos="free" departSpeed="29.0" arrivalLane="current" arrivalPos="max"  > <route edges="E1 E2 E3 E4 E5 E6 E7 E8 E9 E10 E11 E12 E13 E14 E15 E16 E17 E18 E19 E20 E21"/>  </vehicle> 
<vehicle type="CarA"  id="veh5165" depart="96"  departLane="0"  departPos="free" departSpeed="29.0" arrivalLane="current" arrivalPos="max" > <route  edges="E15 E16 E17 E18 E19 E20 E21"/>  </vehicle> 
<vehicle type="CarA"  id="veh190" depart="96"  departLane="3" departPos="free" departSpeed="29.0" arrivalLane="current" arrivalPos="max"  > <route edges="E1 E2 E3 E4 E5 E6 E7 E8 E9 E10 E11 E12 E13 E14 E15 E16 E17 E18 E19 E20 E21"/>  </vehicle> 
<vehicle type="CarA"  id="veh191" depart="97"  departLane="0" departPos="free" departSpeed="29.0" arrivalLane="current" arrivalPos="max"  > <route edges="E1 E2 E3 E4 E5 E6 E7 E8 E9 E10 E11 E12 E13 E14 E15 E16 E17 E18 E19 E20 E21"/>  </vehicle> 
<vehicle type="CarA"  id="veh192" depart="97"  departLane="1" departPos="free" departSpeed="29.0" arrivalLane="current" arrivalPos="max"  > <route edges="E1 E2 E3 E4 E5 E6 E7 E8 E9 E10 E11 E12 E13 E14 E15 E16 E17 E18 E19 E20 E21"/>  </vehicle> 
<vehicle type="CarA"  id="veh5166" depart="97"  departLane="0"  departPos="free" departSpeed="29.0" arrivalLane="current" arrivalPos="max" > <route  edges="E15 E16 E17 E18 E19 E20 E21"/>  </vehicle> 
<vehicle type="CarA"  id="veh193" depart="97"  departLane="2" departPos="free" departSpeed="29.0" arrivalLane="current" arrivalPos="max"  > <route edges="E1 E2 E3 E4 E5 E6 E7 E8 E9 E10 E11 E12 E13 E14 E15 E16 E17 E18 E19 E20 E21"/>  </vehicle> 
<vehicle type="CarA"  id="veh194" depart="98"  departLane="3" departPos="free" departSpeed="29.0" arrivalLane="current" arrivalPos="max"  > <route  edges="E1 E2 E3 E4 E5 E6 E7 E8 E9 E10 E11 E12 E13"/>  </vehicle> 
<vehicle type="CarA"  id="veh195" depart="98"  departLane="0" departPos="free" departSpeed="29.0" arrivalLane="current" arrivalPos="max"  > <route edges="E1 E2 E3 E4 E5 E6 E7 E8 E9 E10 E11 E12 E13 E14 E15 E16 E17 E18 E19 E20 E21"/>  </vehicle> 
<vehicle type="CarA"  id="veh196" depart="98"  departLane="1" departPos="free" departSpeed="29.0" arrivalLane="current" arrivalPos="max"  > <route edges="E1 E2 E3 E4 E5 E6 E7 E8 E9 E10 E11 E12 E13 E14 E15 E16 E17 E18 E19 E20 E21"/>  </vehicle> 
<vehicle type="CarA"  id="veh197" depart="98"  departLane="2" departPos="free" departSpeed="29.0" arrivalLane="current" arrivalPos="max"  > <route  edges="E1 E2 E3 E4 E5 E6 E7 E8 E9 E10 E11 E12 E13 E14 E15 E16 E17 E18 E19 S20"/>  </vehicle> 
<vehicle type="CarA"  id="veh5167" depart="98"  departLane="0"  departPos="free" departSpeed="29.0" arrivalLane="current" arrivalPos="max" > <route  edges="E15 E16 E17 E18 E19 E20 E21"/>  </vehicle> 
<vehicle type="CarA"  id="veh198" depart="99"  departLane="3" departPos="free" departSpeed="29.0" arrivalLane="current" arrivalPos="max"  > <route edges="E1 E2 E3 E4 E5 E6 E7 E8 E9 E10 E11 E12 E13 E14 E15 E16 E17 E18 E19 E20 E21"/>  </vehicle> 
<vehicle type="CarA"  id="veh199" depart="99"  departLane="0" departPos="free" departSpeed="29.0" arrivalLane="current" arrivalPos="max"  > <route edges="E1 E2 E3 E4 E5 E6 E7 E8 E9 E10 E11 E12 E13 E14 E15 E16 E17 E18 E19 E20 E21"/>  </vehicle> 
<vehicle type="CarA"  id="veh200" depart="100"  departLane="1" departPos="free" departSpeed="29.0" arrivalLane="current" arrivalPos="max"  > <route  edges="E1 E2 E3 E4 E5 E6 E7 E8 E9 E10 E11 E12 E13"/>  </vehicle> 
<vehicle type="CarA"  id="veh201" depart="100"  departLane="2" departPos="free" departSpeed="29.0" arrivalLane="current" arrivalPos="max"  > <route edges="E1 E2 E3 E4 E5 E6 E7 E8 E9 E10 E11 E12 E13 E14 E15 E16 E17 E18 E19 E20 E21"/>  </vehicle> 
<vehicle type="CarA"  id="veh202" depart="101"  departLane="3" departPos="free" departSpeed="29.0" arrivalLane="current" arrivalPos="max"  > <route edges="E1 E2 E3 E4 E5 E6 E7 E8 E9 E10 E11 E12 E13 E14 E15 E16 E17 E18 E19 E20 E21"/>  </vehicle> 
<vehicle type="CarA"  id="veh5168" depart="102"  departLane="0"  departPos="free" departSpeed="29.0" arrivalLane="current" arrivalPos="max" > <route  edges="E15 E16 E17 E18 E19 E20 E21"/>  </vehicle> 
<vehicle type="CarA"  id="veh5169" depart="102"  departLane="0"  departPos="free" departSpeed="29.0" arrivalLane="current" arrivalPos="max" > <route  edges="E15 E16 E17 E18 E19 E20 E21"/>  </vehicle> 
<vehicle type="CarA"  id="veh203" depart="102"  departLane="0" departPos="free" departSpeed="29.0" arrivalLane="current" arrivalPos="max"  > <route  edges="E1 E2 E3 E4 E5 E6 E7 E8 E9 E10 E11 E12 E13 E14 E15 E16 E17 E18 E19 S20"/>  </vehicle> 
<vehicle type="CarA"  id="veh204" depart="102"  departLane="1" departPos="free" departSpeed="29.0" arrivalLane="current" arrivalPos="max"  > <route edges="E1 E2 E3 E4 E5 E6 E7 E8 E9 E10 E11 E12 E13 E14 E15 E16 E17 E18 E19 E20 E21"/>  </vehicle> 
<vehicle type="CarA"  id="veh4683" depart="102"  departLane="0"  departPos="free" departSpeed="29.0" arrivalLane="current" arrivalPos="max"  > <route edges="S12 E12 E13 E14 E15 E16 E17 E18 E19 E20 E21"/>  </vehicle> 
<vehicle type="CarA"  id="veh4684" depart="102"  departLane="0"  departPos="free" departSpeed="29.0" arrivalLane="current" arrivalPos="max"  > <route edges="E12 E13 E14 E15 E16 E17 E18 E19 E20 E21"/>  </vehicle> 
<vehicle type="CarA"  id="veh5170" depart="102"  departLane="0"  departPos="free" departSpeed="29.0" arrivalLane="current" arrivalPos="max" > <route  edges="E15 E16 E17 E18 E19 E20 E21"/>  </vehicle> 
<vehicle type="CarA"  id="veh4182" depart="103"  departLane="0"  departPos="free" departSpeed="29.0" arrivalLane="current" arrivalPos="max"  > <route edges="E11 E12 E13 E14 E15 E16 E17 E18 E19 E20 E21"/>  </vehicle> 
<vehicle type="CarA"  id="veh205" depart="103"  departLane="2" departPos="free" departSpeed="29.0" arrivalLane="current" arrivalPos="max"  > <route edges="E1 E2 E3 E4 E5 E6 E7 E8 E9 E10 E11 E12 E13 E14 E15 E16 E17 E18 E19 E20 E21"/>  </vehicle> 
<vehicle type="CarA"  id="veh3691" depart="103"  departLane="0"  departPos="free" departSpeed="29.0" arrivalLane="current" arrivalPos="max"  > <route  edges="E2 E3 E4 E5 E6 E7 E8 E9 E10 E11 E12 E13 E14 E15 E16 E17 E18 E19 E20 E21"/>  </vehicle> 
<vehicle type="CarA"  id="veh5171" depart="103"  departLane="0"  departPos="free" departSpeed="29.0" arrivalLane="current" arrivalPos="max" > <route  edges="E15 E16 E17 E18 E19 E20 E21"/>  </vehicle> 
[...]
<vehicle type="CarA"  id="veh3615" depart="1795"  departLane="0" departPos="free" departSpeed="29.0" arrivalLane="current" arrivalPos="max"  > <route edges="E1 E2 E3 E4 E5 E6 E7 E8 E9 E10 E11 E12 E13 E14 E15 E16 E17 E18 E19 E20 E21"/>  </vehicle> 
<vehicle type="CarA"  id="veh3616" depart="1795"  departLane="1" departPos="free" departSpeed="29.0" arrivalLane="current" arrivalPos="max"  > <route edges="E1 E2 E3 E4 E5 E6 E7 E8 E9 E10 E11 E12 E13 E14 E15 E16 E17 E18 E19 E20 E21"/>  </vehicle> 
<vehicle type="CarA"  id="veh3617" depart="1795"  departLane="2" departPos="free" departSpeed="29.0" arrivalLane="current" arrivalPos="max"  > <route edges="E1 E2 E3 E4 E5 E6 E7 E8 E9 E10 E11 E12 E13 E14 E15 E16 E17 E18 E19 E20 E21"/>  </vehicle> 
<vehicle type="CarA"  id="veh3618" depart="1796"  departLane="3" departPos="free" departSpeed="29.0" arrivalLane="current" arrivalPos="max"  > <route edges="E1 E2 E3 E4 E5 E6 E7 E8 E9 E10 E11 E12 E13 E14 E15 E16 E17 E18 E19 E20 E21"/>  </vehicle> 
<vehicle type="CarA"  id="veh3619" depart="1796"  departLane="0" departPos="free" departSpeed="29.0" arrivalLane="current" arrivalPos="max"  > <route edges="E1 E2 E3 E4 E5 E6 E7 E8 E9 E10 E11 E12 E13 E14 E15 E16 E17 E18 E19 E20 E21"/>  </vehicle> 
<vehicle type="CarA"  id="veh3620" depart="1797"  departLane="1" departPos="free" departSpeed="29.0" arrivalLane="current" arrivalPos="max"  > <route  edges="E1 E2 E3 E4 E5 E6 E7 E8 E9 E10 E11 E12 E13"/>  </vehicle> 
<vehicle type="CarA"  id="veh3621" depart="1797"  departLane="2" departPos="free" departSpeed="29.0" arrivalLane="current" arrivalPos="max"  > <route edges="E1 E2 E3 E4 E5 E6 E7 E8 E9 E10 E11 E12 E13 E14 E15 E16 E17 E18 E19 E20 E21"/>  </vehicle> 
<vehicle type="CarA"  id="veh3622" depart="1797"  departLane="3" departPos="free" departSpeed="29.0" arrivalLane="current" arrivalPos="max"  > <route edges="E1 E2 E3 E4 E5 E6 E7 E8 E9 E10 E11 E12 E13 E14 E15 E16 E17 E18 E19 E20 E21"/>  </vehicle> 
<vehicle type="CarA"  id="veh4645" depart="1797"  departLane="0"  departPos="free" departSpeed="29.0" arrivalLane="current" arrivalPos="max"  > <route edges="E11 E12 E13 E14 E15 E16 E17 E18 E19 E20 E21"/>  </vehicle> 
<vehicle type="CarA"  id="veh3623" depart="1798"  departLane="0" departPos="free" departSpeed="29.0" arrivalLane="current" arrivalPos="max"  > <route edges="E1 E2 E3 E4 E5 E6 E7 E8 E9 E10 E11 E12 E13 E14 E15 E16 E17 E18 E19 E20 E21"/>  </vehicle> 
<vehicle type="CarA"  id="veh3624" depart="1798"  departLane="1" departPos="free" departSpeed="29.0" arrivalLane="current" arrivalPos="max"  > <route edges="E1 E2 E3 E4 E5 E6 E7 E8 E9 E10 E11 E12 E13 E14 E15 E16 E17 E18 E19 E20 E21"/>  </vehicle> 
<vehicle type="CarA"  id="veh4149" depart="1798"  departLane="0"  departPos="free" departSpeed="29.0" arrivalLane="current" arrivalPos="max"  > <route  edges="S2 E2 E3 E4 E5 E6 E7 E8 E9 E10 E11 E12 E13 E14 E15 E16 E17 E18 E19 E20 E21"/>  </vehicle> 
<vehicle type="CarA"  id="veh3625" depart="1799"  departLane="2" departPos="free" departSpeed="29.0" arrivalLane="current" arrivalPos="max"  > <route edges="E1 E2 E3 E4 E5 E6 E7 E8 E9 E10 E11 E12 E13 E14 E15 E16 E17 E18 E19 E20 E21"/>  </vehicle> 
<vehicle type="CarA"  id="veh4646" depart="1800"  departLane="0"  departPos="free" departSpeed="29.0" arrivalLane="current" arrivalPos="max"  > <route edges="E11 E12 E13 E14 E15 E16 E17 E18 E19 E20 E21"/>  </vehicle> 
<vehicle type="CarA"  id="veh3626" depart="1800"  departLane="3" departPos="free" departSpeed="29.0" arrivalLane="current" arrivalPos="max"  > <route edges="E1 E2 E3 E4 E5 E6 E7 E8 E9 E10 E11 E12 E13 E14 E15 E16 E17 E18 E19 E20 E21"/>  </vehicle> 
<vehicle type="CarA"  id="veh4647" depart="1801"  departLane="0"  departPos="free" departSpeed="29.0" arrivalLane="current" arrivalPos="max"  > <route edges="S10 E10 E11 E12 E13 E14 E15 E16 E17 E18 E19 E20 E21"/>  </vehicle> 
<vehicle type="CarA"  id="veh3627" depart="1801"  departLane="0" departPos="free" departSpeed="29.0" arrivalLane="current" arrivalPos="max"  > <route  edges="E1 E2 E3 E4 E5 E6 E7 E8 E9 E10 E11 E12 E13"/>  </vehicle> 
<vehicle type="CarA"  id="veh3628" depart="1802"  departLane="1" departPos="free" departSpeed="29.0" arrivalLane="current" arrivalPos="max"  > <route edges="E1 E2 E3 E4 E5 E6 E7 E8 E9 E10 E11 E12 E13 E14 E15 E16 E17 E18 E19 E20 E21"/>  </vehicle> 
<vehicle type="CarA"  id="veh5100" depart="1802"  departLane="0"  departPos="free" departSpeed="29.0" arrivalLane="current" arrivalPos="max"  > <route edges="E12 E13 E14 E15 E16 E17 E18 E19 E20 E21"/>  </vehicle> 
<vehicle type="CarA"  id="veh3629" depart="1802"  departLane="2" departPos="free" departSpeed="29.0" arrivalLane="current" arrivalPos="max"  > <route edges="E1 E2 E3 E4 E5 E6 E7 E8 E9 E10 E11 E12 E13 E14 E15 E16 E17 E18 E19 E20 E21"/>  </vehicle> 
<vehicle type="CarA"  id="veh4150" depart="1802"  departLane="0"  departPos="free" departSpeed="29.0" arrivalLane="current" arrivalPos="max"  > <route  edges="E2 E3 E4 E5 E6 E7 E8 E9 E10 E11 E12 E13 E14 E15 E16 E17 E18 E19 E20 E21"/>  </vehicle> 
<vehicle type="CarA"  id="veh3630" depart="1802"  departLane="3" departPos="free" departSpeed="29.0" arrivalLane="current" arrivalPos="max"  > <route edges="E1 E2 E3 E4 E5 E6 E7 E8 E9 E10 E11 E12 E13 E14 E15 E16 E17 E18 E19 E20 E21"/>  </vehicle> 
<vehicle type="CarA"  id="veh3631" depart="1802"  departLane="0" departPos="free" departSpeed="29.0" arrivalLane="current" arrivalPos="max"  > <route edges="E1 E2 E3 E4 E5 E6 E7 E8 E9 E10 E11 E12 E13 E14 E15 E16 E17 E18 E19 E20 E21"/>  </vehicle> 
<vehicle type="CarA"  id="veh4151" depart="1803"  departLane="0"  departPos="free" departSpeed="29.0" arrivalLane="current" arrivalPos="max"  > <route  edges="S2 E2 E3 E4 E5 E6 E7 E8 E9 E10 E11 E12 E13 E14 E15 E16 E17 E18 E19 E20 E21"/>  </vehicle> 
<vehicle type="CarA"  id="veh5101" depart="1803"  departLane="0"  departPos="free" departSpeed="29.0" arrivalLane="current" arrivalPos="max"  > <route edges="S12 E12 E13 E14 E15 E16 E17 E18 E19 E20 E21"/>  </vehicle> 
<vehicle type="CarA"  id="veh3632" depart="1803"  departLane="1" departPos="free" departSpeed="29.0" arrivalLane="current" arrivalPos="max"  > <route edges="E1 E2 E3 E4 E5 E6 E7 E8 E9 E10 E11 E12 E13 E14 E15 E16 E17 E18 E19 E20 E21"/>  </vehicle> 
<vehicle type="CarA"  id="veh3633" depart="1803"  departLane="2" departPos="free" departSpeed="29.0" arrivalLane="current" arrivalPos="max"  > <route edges="E1 E2 E3 E4 E5 E6 E7 E8 E9 E10 E11 E12 E13 E14 E15 E16 E17 E18 E19 E20 E21"/>  </vehicle> 
<vehicle type="CarA"  id="veh3634" depart="1803"  departLane="3" departPos="free" departSpeed="29.0" arrivalLane="current" arrivalPos="max"  > <route edges="E1 E2 E3 E4 E5 E6 E7 E8 E9 E10 E11 E12 E13 E14 E15 E16 E17 E18 E19 E20 E21"/>  </vehicle> 
<vehicle type="CarA"  id="veh5102" depart="1804"  departLane="0"  departPos="free" departSpeed="29.0" arrivalLane="current" arrivalPos="max"  > <route edges="E12 E13 E14 E15 E16 E17 E18 E19 E20 E21"/>  </vehicle> 
<vehicle type="CarA"  id="veh3635" depart="1804"  departLane="0" departPos="free" departSpeed="29.0" arrivalLane="current" arrivalPos="max"  > <route edges="E1 E2 E3 E4 E5 E6 E7 E8 E9 E10 E11 E12 E13 E14 E15 E16 E17 E18 E19 E20 E21"/>  </vehicle> 
<vehicle type="CarA"  id="veh5103" depart="1804"  departLane="0"  departPos="free" departSpeed="29.0" arrivalLane="current" arrivalPos="max"  > <route edges="E12 E13 E14 E15 E16 E17 E18 E19 E20 E21"/>  </vehicle> 
<vehicle type="CarA"  id="veh3636" depart="1804"  departLane="1" departPos="free" departSpeed="29.0" arrivalLane="current" arrivalPos="max"  > <route edges="E1 E2 E3 E4 E5 E6 E7 E8 E9 E10 E11 E12 E13 E14 E15 E16 E17 E18 E19 E20 E21"/>  </vehicle> 
<vehicle type="CarA"  id="veh3637" depart="1804"  departLane="2" departPos="free" departSpeed="29.0" arrivalLane="current" arrivalPos="max"  > <route edges="E1 E2 E3 E4 E5 E6 E7 E8 E9 E10 E11 E12 E13 E14 E15 E16 E17 E18 E19 E20 E21"/>  </vehicle> 
<vehicle type="CarA"  id="veh4152" depart="1805"  departLane="0"  departPos="free" departSpeed="29.0" arrivalLane="current" arrivalPos="max"  > <route  edges="S2 E2 E3 E4 E5 E6 E7 E8 E9 E10 E11 E12 E13 E14 E15 E16 E17 E18 E19 E20 E21"/>  </vehicle> 
<vehicle type="CarA"  id="veh3638" depart="1805"  departLane="3" departPos="free" departSpeed="29.0" arrivalLane="current" arrivalPos="max"  > <route edges="E1 E2 E3 E4 E5 E6 E7 E8 E9 E10 E11 E12 E13 E14 E15 E16 E17 E18 E19 E20 E21"/>  </vehicle> 
<vehicle type="CarA"  id="veh3639" depart="1805"  departLane="0" departPos="free" departSpeed="29.0" arrivalLane="current" arrivalPos="max"  > <route  edges="E1 E2 E3 E4 E5 E6 E7 E8 E9 E10 E11 E12 E13"/>  </vehicle> 
<vehicle type="CarA"  id="veh3640" depart="1806"  departLane="1" departPos="free" departSpeed="29.0" arrivalLane="current" arrivalPos="max"  > <route edges="E1 E2 E3 E4 E5 E6 E7 E8 E9 E10 E11 E12 E13 E14 E15 E16 E17 E18 E19 E20 E21"/>  </vehicle> 
<vehicle type="CarA"  id="veh4648" depart="1806"  departLane="0"  departPos="free" departSpeed="29.0" arrivalLane="current" arrivalPos="max"  > <route edges="S10 E10 E11 E12 E13 E14 E15 E16 E17 E18 E19 E20 E21"/>  </vehicle> 
<vehicle type="CarA"  id="veh3641" depart="1806"  departLane="2" departPos="free" departSpeed="29.0" arrivalLane="current" arrivalPos="max"  > <route edges="E1 E2 E3 E4 E5 E6 E7 E8 E9 E10 E11 E12 E13 E14 E15 E16 E17 E18 E19 E20 E21"/>  </vehicle> 
<vehicle type="CarA"  id="veh3642" depart="1806"  departLane="3" departPos="free" departSpeed="29.0" arrivalLane="current" arrivalPos="max"  > <route edges="E1 E2 E3 E4 E5 E6 E7 E8 E9 E10 E11 E12 E13 E14 E15 E16 E17 E18 E19 E20 E21"/>  </vehicle> 
<vehicle type="CarA"  id="veh4649" depart="1808"  departLane="0"  departPos="free" departSpeed="29.0" arrivalLane="current" arrivalPos="max"  > <route edges="E11 E12 E13 E14 E15 E16 E17 E18 E19 E20 E21"/>  </vehicle> 
<vehicle type="CarA"  id="veh3643" depart="1809"  departLane="0" departPos="free" departSpeed="29.0" arrivalLane="current" arrivalPos="max"  > <route  edges="E1 E2 E3 E4 E5 E6 E7 E8 E9 E10 E11 E12 E13 E14 E15 E16 E17 E18 E19 S20"/>  </vehicle> 
<vehicle type="CarA"  id="veh3644" depart="1810"  departLane="1" departPos="free" departSpeed="29.0" arrivalLane="current" arrivalPos="max"  > <route edges="E1 E2 E3 E4 E5 E6 E7 E8 E9 E10 E11 E12 E13 E14 E15 E16 E17 E18 E19 E20 E21"/>  </vehicle> 
<vehicle type="CarA"  id="veh3645" depart="1810"  departLane="2" departPos="free" departSpeed="29.0" arrivalLane="current" arrivalPos="max"  > <route  edges="E1 E2 E3 E4 E5 E6 E7 E8 E9 E10 E11 E12 E13 E14 E15 E16 E17 E18 E19 S20"/>  </vehicle> 
<vehicle type="CarA"  id="veh3646" depart="1810"  departLane="3" departPos="free" departSpeed="29.0" arrivalLane="current" arrivalPos="max"  > <route edges="E1 E2 E3 E4 E5 E6 E7 E8 E9 E10 E11 E12 E13 E14 E15 E16 E17 E18 E19 E20 E21"/>  </vehicle> 
<vehicle type="CarA"  id="veh3647" depart="1810"  departLane="0" departPos="free" departSpeed="29.0" arrivalLane="current" arrivalPos="max"  > <route  edges="E1 E2 E3 E4 E5 E6 E7 E8 E9 E10 E11 E12 E13"/>  </vehicle> 
<vehicle type="CarA"  id="veh3648" depart="1810"  departLane="1" departPos="free" departSpeed="29.0" arrivalLane="current" arrivalPos="max"  > <route edges="E1 E2 E3 E4 E5 E6 E7 E8 E9 E10 E11 E12 E13 E14 E15 E16 E17 E18 E19 E20 E21"/>  </vehicle> 
<vehicle type="CarA"  id="veh3649" depart="1811"  departLane="2" departPos="free" departSpeed="29.0" arrivalLane="current" arrivalPos="max"  > <route edges="E1 E2 E3 E4 E5 E6 E7 E8 E9 E10 E11 E12 E13 E14 E15 E16 E17 E18 E19 E20 E21"/>  </vehicle> 
<vehicle type="CarA"  id="veh3650" depart="1811"  departLane="3" departPos="free" departSpeed="29.0" arrivalLane="current" arrivalPos="max"  > <route  edges="E1 E2 E3 E4 E5 E6 E7 E8 E9 E10 E11 E12 E13"/>  </vehicle> 
<vehicle type="CarA"  id="veh3651" depart="1811"  departLane="0" departPos="free" departSpeed="29.0" arrivalLane="current" arrivalPos="max"  > <route edges="E1 E2 E3 E4 E5 E6 E7 E8 E9 E10 E11 E12 E13 E14 E15 E16 E17 E18 E19 E20 E21"/>  </vehicle> 
<vehicle type="CarA"  id="veh5104" depart="1812"  departLane="0"  departPos="free" departSpeed="29.0" arrivalLane="current" arrivalPos="max"  > <route edges="E12 E13 E14 E15 E16 E17 E18 E19 E20 E21"/>  </vehicle> 
<vehicle type="CarA"  id="veh3652" depart="1812"  departLane="1" departPos="free" departSpeed="29.0" arrivalLane="current" arrivalPos="max"  > <route edges="E1 E2 E3 E4 E5 E6 E7 E8 E9 E10 E11 E12 E13 E14 E15 E16 E17 E18 E19 E20 E21"/>  </vehicle> 
<vehicle type="CarA"  id="veh3653" depart="1812"  departLane="2" departPos="free" departSpeed="29.0" arrivalLane="current" arrivalPos="max"  > <route edges="E1 E2 E3 E4 E5 E6 E7 E8 E9 E10 E11 E12 E13 E14 E15 E16 E17 E18 E19 E20 E21"/>  </vehicle> 
<vehicle type="CarA"  id="veh3654" depart="1812"  departLane="3" departPos="free" departSpeed="29.0" arrivalLane="current" arrivalPos="max"  > <route edges="E1 E2 E3 E4 E5 E6 E7 E8 E9 E10 E11 E12 E13 E14 E15 E16 E17 E18 E19 E20 E21"/>  </vehicle> 
<vehicle type="CarA"  id="veh5105" depart="1815"  departLane="0"  departPos="free" departSpeed="29.0" arrivalLane="current" arrivalPos="max"  > <route edges="E12 E13 E14 E15 E16 E17 E18 E19 E20 E21"/>  </vehicle> 
<vehicle type="CarA"  id="veh3655" depart="1815"  departLane="0" departPos="free" departSpeed="29.0" arrivalLane="current" arrivalPos="max"  > <route edges="E1 E2 E3 E4 E5 E6 E7 E8 E9 E10 E11 E12 E13 E14 E15 E16 E17 E18 E19 E20 E21"/>  </vehicle> 
<vehicle type="CarA"  id="veh3656" depart="1816"  departLane="1" departPos="free" departSpeed="29.0" arrivalLane="current" arrivalPos="max"  > <route edges="E1 E2 E3 E4 E5 E6 E7 E8 E9 E10 E11 E12 E13 E14 E15 E16 E17 E18 E19 E20 E21"/>  </vehicle> 
<vehicle type="CarA"  id="veh3657" depart="1816"  departLane="2" departPos="free" departSpeed="29.0" arrivalLane="current" arrivalPos="max"  > <route edges="E1 E2 E3 E4 E5 E6 E7 E8 E9 E10 E11 E12 E13 E14 E15 E16 E17 E18 E19 E20 E21"/>  </vehicle> 
<vehicle type="CarA"  id="veh5106" depart="1817"  departLane="0"  departPos="free" departSpeed="29.0" arrivalLane="current" arrivalPos="max"  > <route edges="E12 E13 E14 E15 E16 E17 E18 E19 E20 E21"/>  </vehicle> 
<vehicle type="CarA"  id="veh3658" depart="1817"  departLane="3" departPos="free" departSpeed="29.0" arrivalLane="current" arrivalPos="max"  > <route  edges="E1 E2 E3 E4 E5 E6 E7 E8 E9 E10 E11 E12 E13 E14 E15 E16 E17 E18 E19 S20"/>  </vehicle> 
<vehicle type="CarA"  id="veh3659" depart="1818"  departLane="0" departPos="free" departSpeed="29.0" arrivalLane="current" arrivalPos="max"  > <route edges="E1 E2 E3 E4 E5 E6 E7 E8 E9 E10 E11 E12 E13 E14 E15 E16 E17 E18 E19 E20 E21"/>  </vehicle> 
<vehicle type="CarA"  id="veh3660" depart="1818"  departLane="1" departPos="free" departSpeed="29.0" arrivalLane="current" arrivalPos="max"  > <route  edges="E1 E2 E3 E4 E5 E6 E7 E8 E9 E10 E11 E12 E13"/>  </vehicle> 
<vehicle type="CarA"  id="veh3661" depart="1818"  departLane="2" departPos="free" departSpeed="29.0" arrivalLane="current" arrivalPos="max"  > <route edges="E1 E2 E3 E4 E5 E6 E7 E8 E9 E10 E11 E12 E13 E14 E15 E16 E17 E18 E19 E20 E21"/>  </vehicle> 
<vehicle type="CarA"  id="veh4153" depart="1818"  departLane="0"  departPos="free" departSpeed="29.0" arrivalLane="current" arrivalPos="max"  > <route  edges="E2 E3 E4 E5 E6 E7 E8 E9 E10 E11 E12 E13 E14 E15 E16 E17 E18 E19 E20 E21"/>  </vehicle> 
<vehicle type="CarA"  id="veh3662" depart="1818"  departLane="3" departPos="free" departSpeed="29.0" arrivalLane="current" arrivalPos="max"  > <route edges="E1 E2 E3 E4 E5 E6 E7 E8 E9 E10 E11 E12 E13 E14 E15 E16 E17 E18 E19 E20 E21"/>  </vehicle> 
<vehicle type="CarA"  id="veh3663" depart="1818"  departLane="0" departPos="free" departSpeed="29.0" arrivalLane="current" arrivalPos="max"  > <route edges="E1 E2 E3 E4 E5 E6 E7 E8 E9 E10 E11 E12 E13 E14 E15 E16 E17 E18 E19 E20 E21"/>  </vehicle> 
<vehicle type="CarA"  id="veh5107" depart="1819"  departLane="0"  departPos="free" departSpeed="29.0" arrivalLane="current" arrivalPos="max"  > <route edges="E12 E13 E14 E15 E16 E17 E18 E19 E20 E21"/>  </vehicle> 
<vehicle type="CarA"  id="veh4650" depart="1820"  departLane="0"  departPos="free" departSpeed="29.0" arrivalLane="current" arrivalPos="max"  > <route edges="E11 E12 E13 E14 E15 E16 E17 E18 E19 E20 E21"/>  </vehicle> 
<vehicle type="CarA"  id="veh4651" depart="1821"  departLane="0"  departPos="free" departSpeed="29.0" arrivalLane="current" arrivalPos="max"  > <route edges="E11 E12 E13 E14 E15 E16 E17 E18 E19 E20 E21"/>  </vehicle> 
<vehicle type="CarA"  id="veh4652" depart="1822"  departLane="0"  departPos="free" departSpeed="29.0" arrivalLane="current" arrivalPos="max"  > <route edges="S10 E10 E11 E12 E13 E14 E15 E16 E17 E18 E19 E20 E21"/>  </vehicle> 
<vehicle type="CarA"  id="veh4653" depart="1823"  departLane="0"  departPos="free" departSpeed="29.0" arrivalLane="current" arrivalPos="max"  > <route edges="S10 E10 E11 E12 E13 E14 E15 E16 E17 E18 E19 E20 E21"/>  </vehicle> 
<vehicle type="CarA"  id="veh4154" depart="1823"  departLane="0"  departPos="free" departSpeed="29.0" arrivalLane="current" arrivalPos="max"  > <route  edges="E2 E3 E4 E5 E6 E7 E8 E9 E10 E11 E12 E13 E14 E15 E16 E17 E18 E19 E20 E21"/>  </vehicle> 
<vehicle type="CarA"  id="veh5108" depart="1824"  departLane="0"  departPos="free" departSpeed="29.0" arrivalLane="current" arrivalPos="max"  > <route edges="S12 E12 E13 E14 E15 E16 E17 E18 E19 E20 E21"/>  </vehicle> 
<vehicle type="CarA"  id="veh4155" depart="1824"  departLane="0"  departPos="free" departSpeed="29.0" arrivalLane="current" arrivalPos="max"  > <route  edges="S2 E2 E3 E4 E5 E6 E7 E8 E9 E10 E11 E12 E13 E14 E15 E16 E17 E18 E19 E20 E21"/>  </vehicle> 
<vehicle type="CarA"  id="veh4654" depart="1827"  departLane="0"  departPos="free" departSpeed="29.0" arrivalLane="current" arrivalPos="max"  > <route edges="E11 E12 E13 E14 E15 E16 E17 E18 E19 E20 E21"/>  </vehicle> 
<vehicle type="CarA"  id="veh4156" depart="1827"  departLane="0"  departPos="free" departSpeed="29.0" arrivalLane="current" arrivalPos="max"  > <route  edges="E2 E3 E4 E5 E6 E7 E8 E9 E10 E11 E12 E13 E14 E15 E16 E17 E18 E19 E20 E21"/>  </vehicle> 
<vehicle type="CarA"  id="veh4655" depart="1830"  departLane="0"  departPos="free" departSpeed="29.0" arrivalLane="current" arrivalPos="max"  > <route edges="E11 E12 E13 E14 E15 E16 E17 E18 E19 E20 E21"/>  </vehicle> 
<vehicle type="CarA"  id="veh4157" depart="1832"  departLane="0"  departPos="free" departSpeed="29.0" arrivalLane="current" arrivalPos="max"  > <route  edges="S2 E2 E3 E4 E5 E6 E7 E8 E9 E10 E11 E12 E13 E14 E15 E16 E17 E18 E19 E20 E21"/>  </vehicle> 
<vehicle type="CarA"  id="veh4656" depart="1834"  departLane="0"  departPos="free" departSpeed="29.0" arrivalLane="current" arrivalPos="max"  > <route edges="E11 E12 E13 E14 E15 E16 E17 E18 E19 E20 E21"/>  </vehicle> 
<vehicle type="CarA"  id="veh4158" depart="1838"  departLane="0"  departPos="free" departSpeed="29.0" arrivalLane="current" arrivalPos="max"  > <route  edges="E2 E3 E4 E5 E6 E7 E8 E9 E10 E11 E12 E13 E14 E15 E16 E17 E18 E19 E20 E21"/>  </vehicle> 
<vehicle type="CarA"  id="veh4657" depart="1839"  departLane="0"  departPos="free" departSpeed="29.0" arrivalLane="current" arrivalPos="max"  > <route edges="E11 E12 E13 E14 E15 E16 E17 E18 E19 E20 E21"/>  </vehicle> 
<vehicle type="CarA"  id="veh4658" depart="1840"  departLane="0"  departPos="free" departSpeed="29.0" arrivalLane="current" arrivalPos="max"  > <route edges="E11 E12 E13 E14 E15 E16 E17 E18 E19 E20 E21"/>  </vehicle> 
<vehicle type="CarA"  id="veh4159" depart="1844"  departLane="0"  departPos="free" departSpeed="29.0" arrivalLane="current" arrivalPos="max"  > <route  edges="S2 E2 E3 E4 E5 E6 E7 E8 E9 E10 E11 E12 E13 E14 E15 E16 E17 E18 E19 E20 E21"/>  </vehicle> 
<vehicle type="CarA"  id="veh4160" depart="1846"  departLane="0"  departPos="free" departSpeed="29.0" arrivalLane="current" arrivalPos="max"  > <route  edges="E2 E3 E4 E5 E6 E7 E8 E9 E10 E11 E12 E13 E14 E15 E16 E17 E18 E19 E20 E21"/>  </vehicle> 
</routes> 
